Circuit: * Z:\home\luke\Backup\info\projects\transistorComputer\lab6.asc

WARNING: Node N003 is floating.

Warning: Pd = 0 is less than W.
Warning: Ps = 0 is less than W.
Warning: Pd = 0 is less than W.
Warning: Ps = 0 is less than W.
Direct Newton iteration for .op point succeeded.

avg(v(out)*(id(m4))=0.01 FROM 0 TO 0.01


Date: Thu Mar 01 15:38:31 2018
Total elapsed time: 0.254 seconds.

tnom = 27
temp = 27
method = modified trap
totiter = 9369
traniter = 9344
tranpoints = 3708
accept = 3208
rejected = 500
matrix size = 14
fillins = 2
solver = Normal
Matrix Compiler1: 964 bytes object code size  1.0/0.9/[0.7]
Matrix Compiler2: 1.17 KB object code size  0.9/0.9/[0.8]


