Circuit: * Z:\home\luke\Backup\info\projects\transistorComputer\lab7.asc

Direct Newton iteration for .op point succeeded.

Date: Thu Mar 08 15:50:30 2018
Total elapsed time: 0.054 seconds.

tnom = 27
temp = 27
method = modified trap
totiter = 2094
traniter = 2082
tranpoints = 1042
accept = 1042
rejected = 0
matrix size = 13
fillins = 0
solver = Normal
Matrix Compiler1: 496 bytes object code size  0.8/0.6/[0.6]
Matrix Compiler2: 1.00 KB object code size  0.7/0.7/[0.6]


