Circuit: * D:\transistorComputer\CMOS\CLK.asc

Warning: Pd = 0 is less than W.
Warning: Ps = 0 is less than W.
Warning: Pd = 0 is less than W.
Warning: Ps = 0 is less than W.
Warning: Pd = 0 is less than W.
Warning: Ps = 0 is less than W.
Warning: Pd = 0 is less than W.
Warning: Ps = 0 is less than W.
Warning: Pd = 0 is less than W.
Warning: Ps = 0 is less than W.
Warning: Pd = 0 is less than W.
Warning: Ps = 0 is less than W.
Warning: Pd = 0 is less than W.
Warning: Ps = 0 is less than W.
Warning: Pd = 0 is less than W.
Warning: Ps = 0 is less than W.
Warning: Pd = 0 is less than W.
Warning: Ps = 0 is less than W.
Direct Newton iteration for .op point succeeded.

Date: Sat Feb 17 11:18:43 2018
Total elapsed time: 0.108 seconds.

tnom = 27
temp = 27
method = modified trap
totiter = 3247
traniter = 3232
tranpoints = 1280
accept = 1157
rejected = 123
matrix size = 10
fillins = 0
solver = Normal
Matrix Compiler1: 738 bytes object code size  0.2/0.1/[0.1]
Matrix Compiler2: 944 bytes object code size  0.1/0.1/[0.1]

