Circuit: * Z:\home\luke\Backup\info\projects\transistorComputer\CMOS\Draft2.asc

Warning: Pd = 0 is less than W.
Warning: Ps = 0 is less than W.
Warning: Pd = 0 is less than W.
Warning: Ps = 0 is less than W.
Warning: Pd = 0 is less than W.
Warning: Ps = 0 is less than W.
Warning: Pd = 0 is less than W.
Warning: Ps = 0 is less than W.
Direct Newton iteration for .op point succeeded.

Date: Thu Feb 08 18:00:34 2018
Total elapsed time: 0.136 seconds.

tnom = 27
temp = 27
method = modified trap
totiter = 5075
traniter = 5031
tranpoints = 2248
accept = 1991
rejected = 257
matrix size = 10
fillins = 0
solver = Normal
Matrix Compiler1: 560 bytes object code size  0.7/0.6/[0.6]
Matrix Compiler2: 890 bytes object code size  0.7/0.7/[0.6]


