Circuit: * D:\transistorComputer\CMOS\Lab_6_DFF.asc

Warning: Pd = 0 is less than W.
Warning: Ps = 0 is less than W.
Warning: Pd = 0 is less than W.
Warning: Ps = 0 is less than W.
Warning: Pd = 0 is less than W.
Warning: Ps = 0 is less than W.
Warning: Pd = 0 is less than W.
Warning: Ps = 0 is less than W.
Warning: Pd = 0 is less than W.
Warning: Ps = 0 is less than W.
Warning: Pd = 0 is less than W.
Warning: Ps = 0 is less than W.
Direct Newton iteration for .op point succeeded.
Heightened Def Con from 1.01546e-006 to 1.01552e-006
Heightened Def Con from 3.5102e-006 to 3.51021e-006
Heightened Def Con from 3.51021e-006 +++++++++++++++++++++to 3.51034e-006
Heightened Def Con from 7.01659e-006 ++++++++++to 7.01709e-006
Heightened Def Con from 9.5101e-006 to 9.51022e-006
Heightened Def Con from 9.51023e-006 +++++++++++++++++++to 9.51023e-006
Heightened Def Con from 1.30166e-005 ++++++++to 1.30167e-005
Heightened Def Con from 1.55093e-005 +++++++++++++++to 1.55093e-005
Heightened Def Con from 1.55111e-005 ++++++++++++++++++++++to 1.55151e-005
Heightened Def Con from 1.90166e-005 +++++++++++++++to 1.90206e-005
Heightened Def Con from 2.15102e-005 ++++++++++++++++++++to 2.15112e-005
Heightened Def Con from 2.50166e-005 +++++to 2.50167e-005
Heightened Def Con from 2.75095e-005 ++++++++++++++++to 2.75096e-005

Date: Thu Feb 22 17:59:29 2018
Total elapsed time: 0.328 seconds.

tnom = 27
temp = 27
method = modified trap
totiter = 36599
traniter = 36557
tranpoints = 7424
accept = 4535
rejected = 3053
matrix size = 12
fillins = 0
solver = Normal
Matrix Compiler1: 644 bytes object code size  0.2/0.1/[0.1]
Matrix Compiler2: off  [0.1]/0.2/0.2

