Circuit: * D:\transistorComputer\CMOS\Ring_Occ[71].asc

Instance "m:x71:2": Width narrower than recommended for a level 1 MOSFET.
Instance "m:x71:3": Length shorter than recommended for a level 1 MOSFET.
Instance "m:x71:3": Width narrower than recommended for a level 1 MOSFET.
Instance "m:x71:1": Width narrower than recommended for a level 1 MOSFET.
Instance "m:x70:2": Width narrower than recommended for a level 1 MOSFET.
Instance "m:x70:3": Length shorter than recommended for a level 1 MOSFET.
Instance "m:x70:3": Width narrower than recommended for a level 1 MOSFET.
Instance "m:x70:1": Width narrower than recommended for a level 1 MOSFET.
Instance "m:x69:2": Width narrower than recommended for a level 1 MOSFET.
Instance "m:x69:3": Length shorter than recommended for a level 1 MOSFET.
Instance "m:x69:3": Width narrower than recommended for a level 1 MOSFET.
Instance "m:x69:1": Width narrower than recommended for a level 1 MOSFET.
Instance "m:x68:2": Width narrower than recommended for a level 1 MOSFET.
Instance "m:x68:3": Length shorter than recommended for a level 1 MOSFET.
Instance "m:x68:3": Width narrower than recommended for a level 1 MOSFET.
Instance "m:x68:1": Width narrower than recommended for a level 1 MOSFET.
Instance "m:x67:2": Width narrower than recommended for a level 1 MOSFET.
Instance "m:x67:3": Length shorter than recommended for a level 1 MOSFET.
Instance "m:x67:3": Width narrower than recommended for a level 1 MOSFET.
Instance "m:x67:1": Width narrower than recommended for a level 1 MOSFET.
Instance "m:x66:2": Width narrower than recommended for a level 1 MOSFET.
Instance "m:x66:3": Length shorter than recommended for a level 1 MOSFET.
Instance "m:x66:3": Width narrower than recommended for a level 1 MOSFET.
Instance "m:x66:1": Width narrower than recommended for a level 1 MOSFET.
Instance "m:x65:2": Width narrower than recommended for a level 1 MOSFET.
Instance "m:x65:3": Length shorter than recommended for a level 1 MOSFET.
Instance "m:x65:3": Width narrower than recommended for a level 1 MOSFET.
Instance "m:x65:1": Width narrower than recommended for a level 1 MOSFET.
Instance "m:x64:2": Width narrower than recommended for a level 1 MOSFET.
Instance "m:x64:3": Length shorter than recommended for a level 1 MOSFET.
Instance "m:x64:3": Width narrower than recommended for a level 1 MOSFET.
Instance "m:x64:1": Width narrower than recommended for a level 1 MOSFET.
Instance "m:x63:2": Width narrower than recommended for a level 1 MOSFET.
Instance "m:x63:3": Length shorter than recommended for a level 1 MOSFET.
Instance "m:x63:3": Width narrower than recommended for a level 1 MOSFET.
Instance "m:x63:1": Width narrower than recommended for a level 1 MOSFET.
Instance "m:x62:2": Width narrower than recommended for a level 1 MOSFET.
Instance "m:x62:3": Length shorter than recommended for a level 1 MOSFET.
Instance "m:x62:3": Width narrower than recommended for a level 1 MOSFET.
Instance "m:x62:1": Width narrower than recommended for a level 1 MOSFET.
Instance "m:x61:2": Width narrower than recommended for a level 1 MOSFET.
Instance "m:x61:3": Length shorter than recommended for a level 1 MOSFET.
Instance "m:x61:3": Width narrower than recommended for a level 1 MOSFET.
Instance "m:x61:1": Width narrower than recommended for a level 1 MOSFET.
Instance "m:x60:2": Width narrower than recommended for a level 1 MOSFET.
Instance "m:x60:3": Length shorter than recommended for a level 1 MOSFET.
Instance "m:x60:3": Width narrower than recommended for a level 1 MOSFET.
Instance "m:x60:1": Width narrower than recommended for a level 1 MOSFET.
Instance "m:x59:2": Width narrower than recommended for a level 1 MOSFET.
Instance "m:x59:3": Length shorter than recommended for a level 1 MOSFET.
Instance "m:x59:3": Width narrower than recommended for a level 1 MOSFET.
Instance "m:x59:1": Width narrower than recommended for a level 1 MOSFET.
Instance "m:x58:2": Width narrower than recommended for a level 1 MOSFET.
Instance "m:x58:3": Length shorter than recommended for a level 1 MOSFET.
Instance "m:x58:3": Width narrower than recommended for a level 1 MOSFET.
Instance "m:x58:1": Width narrower than recommended for a level 1 MOSFET.
Instance "m:x57:2": Width narrower than recommended for a level 1 MOSFET.
Instance "m:x57:3": Length shorter than recommended for a level 1 MOSFET.
Instance "m:x57:3": Width narrower than recommended for a level 1 MOSFET.
Instance "m:x57:1": Width narrower than recommended for a level 1 MOSFET.
Instance "m:x56:2": Width narrower than recommended for a level 1 MOSFET.
Instance "m:x56:3": Length shorter than recommended for a level 1 MOSFET.
Instance "m:x56:3": Width narrower than recommended for a level 1 MOSFET.
Instance "m:x56:1": Width narrower than recommended for a level 1 MOSFET.
Instance "m:x55:2": Width narrower than recommended for a level 1 MOSFET.
Instance "m:x55:3": Length shorter than recommended for a level 1 MOSFET.
Instance "m:x55:3": Width narrower than recommended for a level 1 MOSFET.
Instance "m:x55:1": Width narrower than recommended for a level 1 MOSFET.
Instance "m:x36:2": Width narrower than recommended for a level 1 MOSFET.
Instance "m:x36:3": Length shorter than recommended for a level 1 MOSFET.
Instance "m:x36:3": Width narrower than recommended for a level 1 MOSFET.
Instance "m:x36:1": Width narrower than recommended for a level 1 MOSFET.
Instance "m:x35:2": Width narrower than recommended for a level 1 MOSFET.
Instance "m:x35:3": Length shorter than recommended for a level 1 MOSFET.
Instance "m:x35:3": Width narrower than recommended for a level 1 MOSFET.
Instance "m:x35:1": Width narrower than recommended for a level 1 MOSFET.
Instance "m:x34:2": Width narrower than recommended for a level 1 MOSFET.
Instance "m:x34:3": Length shorter than recommended for a level 1 MOSFET.
Instance "m:x34:3": Width narrower than recommended for a level 1 MOSFET.
Instance "m:x34:1": Width narrower than recommended for a level 1 MOSFET.
Instance "m:x33:2": Width narrower than recommended for a level 1 MOSFET.
Instance "m:x33:3": Length shorter than recommended for a level 1 MOSFET.
Instance "m:x33:3": Width narrower than recommended for a level 1 MOSFET.
Instance "m:x33:1": Width narrower than recommended for a level 1 MOSFET.
Instance "m:x32:2": Width narrower than recommended for a level 1 MOSFET.
Instance "m:x32:3": Length shorter than recommended for a level 1 MOSFET.
Instance "m:x32:3": Width narrower than recommended for a level 1 MOSFET.
Instance "m:x32:1": Width narrower than recommended for a level 1 MOSFET.
Instance "m:x31:2": Width narrower than recommended for a level 1 MOSFET.
Instance "m:x31:3": Length shorter than recommended for a level 1 MOSFET.
Instance "m:x31:3": Width narrower than recommended for a level 1 MOSFET.
Instance "m:x31:1": Width narrower than recommended for a level 1 MOSFET.
Instance "m:x30:2": Width narrower than recommended for a level 1 MOSFET.
Instance "m:x30:3": Length shorter than recommended for a level 1 MOSFET.
Instance "m:x30:3": Width narrower than recommended for a level 1 MOSFET.
Instance "m:x30:1": Width narrower than recommended for a level 1 MOSFET.
Instance "m:x29:2": Width narrower than recommended for a level 1 MOSFET.
Instance "m:x29:3": Length shorter than recommended for a level 1 MOSFET.
Instance "m:x29:3": Width narrower than recommended for a level 1 MOSFET.
Instance "m:x29:1": Width narrower than recommended for a level 1 MOSFET.
Instance "m:x28:2": Width narrower than recommended for a level 1 MOSFET.
Instance "m:x28:3": Length shorter than recommended for a level 1 MOSFET.
Instance "m:x28:3": Width narrower than recommended for a level 1 MOSFET.
Instance "m:x28:1": Width narrower than recommended for a level 1 MOSFET.
Instance "m:x27:2": Width narrower than recommended for a level 1 MOSFET.
Instance "m:x27:3": Length shorter than recommended for a level 1 MOSFET.
Instance "m:x27:3": Width narrower than recommended for a level 1 MOSFET.
Instance "m:x27:1": Width narrower than recommended for a level 1 MOSFET.
Instance "m:x26:2": Width narrower than recommended for a level 1 MOSFET.
Instance "m:x26:3": Length shorter than recommended for a level 1 MOSFET.
Instance "m:x26:3": Width narrower than recommended for a level 1 MOSFET.
Instance "m:x26:1": Width narrower than recommended for a level 1 MOSFET.
Instance "m:x25:2": Width narrower than recommended for a level 1 MOSFET.
Instance "m:x25:3": Length shorter than recommended for a level 1 MOSFET.
Instance "m:x25:3": Width narrower than recommended for a level 1 MOSFET.
Instance "m:x25:1": Width narrower than recommended for a level 1 MOSFET.
Instance "m:x24:2": Width narrower than recommended for a level 1 MOSFET.
Instance "m:x24:3": Length shorter than recommended for a level 1 MOSFET.
Instance "m:x24:3": Width narrower than recommended for a level 1 MOSFET.
Instance "m:x24:1": Width narrower than recommended for a level 1 MOSFET.
Instance "m:x23:2": Width narrower than recommended for a level 1 MOSFET.
Instance "m:x23:3": Length shorter than recommended for a level 1 MOSFET.
Instance "m:x23:3": Width narrower than recommended for a level 1 MOSFET.
Instance "m:x23:1": Width narrower than recommended for a level 1 MOSFET.
Instance "m:x22:2": Width narrower than recommended for a level 1 MOSFET.
Instance "m:x22:3": Length shorter than recommended for a level 1 MOSFET.
Instance "m:x22:3": Width narrower than recommended for a level 1 MOSFET.
Instance "m:x22:1": Width narrower than recommended for a level 1 MOSFET.
Instance "m:x21:2": Width narrower than recommended for a level 1 MOSFET.
Instance "m:x21:3": Length shorter than recommended for a level 1 MOSFET.
Instance "m:x21:3": Width narrower than recommended for a level 1 MOSFET.
Instance "m:x21:1": Width narrower than recommended for a level 1 MOSFET.
Instance "m:x20:2": Width narrower than recommended for a level 1 MOSFET.
Instance "m:x20:3": Length shorter than recommended for a level 1 MOSFET.
Instance "m:x20:3": Width narrower than recommended for a level 1 MOSFET.
Instance "m:x20:1": Width narrower than recommended for a level 1 MOSFET.
Instance "m:x19:2": Width narrower than recommended for a level 1 MOSFET.
Instance "m:x19:3": Length shorter than recommended for a level 1 MOSFET.
Instance "m:x19:3": Width narrower than recommended for a level 1 MOSFET.
Instance "m:x19:1": Width narrower than recommended for a level 1 MOSFET.
Instance "m:x54:2": Width narrower than recommended for a level 1 MOSFET.
Instance "m:x54:3": Length shorter than recommended for a level 1 MOSFET.
Instance "m:x54:3": Width narrower than recommended for a level 1 MOSFET.
Instance "m:x54:1": Width narrower than recommended for a level 1 MOSFET.
Instance "m:x53:2": Width narrower than recommended for a level 1 MOSFET.
Instance "m:x53:3": Length shorter than recommended for a level 1 MOSFET.
Instance "m:x53:3": Width narrower than recommended for a level 1 MOSFET.
Instance "m:x53:1": Width narrower than recommended for a level 1 MOSFET.
Instance "m:x52:2": Width narrower than recommended for a level 1 MOSFET.
Instance "m:x52:3": Length shorter than recommended for a level 1 MOSFET.
Instance "m:x52:3": Width narrower than recommended for a level 1 MOSFET.
Instance "m:x52:1": Width narrower than recommended for a level 1 MOSFET.
Instance "m:x51:2": Width narrower than recommended for a level 1 MOSFET.
Instance "m:x51:3": Length shorter than recommended for a level 1 MOSFET.
Instance "m:x51:3": Width narrower than recommended for a level 1 MOSFET.
Instance "m:x51:1": Width narrower than recommended for a level 1 MOSFET.
Instance "m:x50:2": Width narrower than recommended for a level 1 MOSFET.
Instance "m:x50:3": Length shorter than recommended for a level 1 MOSFET.
Instance "m:x50:3": Width narrower than recommended for a level 1 MOSFET.
Instance "m:x50:1": Width narrower than recommended for a level 1 MOSFET.
Instance "m:x49:2": Width narrower than recommended for a level 1 MOSFET.
Instance "m:x49:3": Length shorter than recommended for a level 1 MOSFET.
Instance "m:x49:3": Width narrower than recommended for a level 1 MOSFET.
Instance "m:x49:1": Width narrower than recommended for a level 1 MOSFET.
Instance "m:x48:2": Width narrower than recommended for a level 1 MOSFET.
Instance "m:x48:3": Length shorter than recommended for a level 1 MOSFET.
Instance "m:x48:3": Width narrower than recommended for a level 1 MOSFET.
Instance "m:x48:1": Width narrower than recommended for a level 1 MOSFET.
Instance "m:x47:2": Width narrower than recommended for a level 1 MOSFET.
Instance "m:x47:3": Length shorter than recommended for a level 1 MOSFET.
Instance "m:x47:3": Width narrower than recommended for a level 1 MOSFET.
Instance "m:x47:1": Width narrower than recommended for a level 1 MOSFET.
Instance "m:x46:2": Width narrower than recommended for a level 1 MOSFET.
Instance "m:x46:3": Length shorter than recommended for a level 1 MOSFET.
Instance "m:x46:3": Width narrower than recommended for a level 1 MOSFET.
Instance "m:x46:1": Width narrower than recommended for a level 1 MOSFET.
Instance "m:x45:2": Width narrower than recommended for a level 1 MOSFET.
Instance "m:x45:3": Length shorter than recommended for a level 1 MOSFET.
Instance "m:x45:3": Width narrower than recommended for a level 1 MOSFET.
Instance "m:x45:1": Width narrower than recommended for a level 1 MOSFET.
Instance "m:x44:2": Width narrower than recommended for a level 1 MOSFET.
Instance "m:x44:3": Length shorter than recommended for a level 1 MOSFET.
Instance "m:x44:3": Width narrower than recommended for a level 1 MOSFET.
Instance "m:x44:1": Width narrower than recommended for a level 1 MOSFET.
Instance "m:x43:2": Width narrower than recommended for a level 1 MOSFET.
Instance "m:x43:3": Length shorter than recommended for a level 1 MOSFET.
Instance "m:x43:3": Width narrower than recommended for a level 1 MOSFET.
Instance "m:x43:1": Width narrower than recommended for a level 1 MOSFET.
Instance "m:x42:2": Width narrower than recommended for a level 1 MOSFET.
Instance "m:x42:3": Length shorter than recommended for a level 1 MOSFET.
Instance "m:x42:3": Width narrower than recommended for a level 1 MOSFET.
Instance "m:x42:1": Width narrower than recommended for a level 1 MOSFET.
Instance "m:x41:2": Width narrower than recommended for a level 1 MOSFET.
Instance "m:x41:3": Length shorter than recommended for a level 1 MOSFET.
Instance "m:x41:3": Width narrower than recommended for a level 1 MOSFET.
Instance "m:x41:1": Width narrower than recommended for a level 1 MOSFET.
Instance "m:x40:2": Width narrower than recommended for a level 1 MOSFET.
Instance "m:x40:3": Length shorter than recommended for a level 1 MOSFET.
Instance "m:x40:3": Width narrower than recommended for a level 1 MOSFET.
Instance "m:x40:1": Width narrower than recommended for a level 1 MOSFET.
Instance "m:x39:2": Width narrower than recommended for a level 1 MOSFET.
Instance "m:x39:3": Length shorter than recommended for a level 1 MOSFET.
Instance "m:x39:3": Width narrower than recommended for a level 1 MOSFET.
Instance "m:x39:1": Width narrower than recommended for a level 1 MOSFET.
Instance "m:x38:2": Width narrower than recommended for a level 1 MOSFET.
Instance "m:x38:3": Length shorter than recommended for a level 1 MOSFET.
Instance "m:x38:3": Width narrower than recommended for a level 1 MOSFET.
Instance "m:x38:1": Width narrower than recommended for a level 1 MOSFET.
Instance "m:x37:2": Width narrower than recommended for a level 1 MOSFET.
Instance "m:x37:3": Length shorter than recommended for a level 1 MOSFET.
Instance "m:x37:3": Width narrower than recommended for a level 1 MOSFET.
Instance "m:x37:1": Width narrower than recommended for a level 1 MOSFET.
Instance "m:x18:2": Width narrower than recommended for a level 1 MOSFET.
Instance "m:x18:3": Length shorter than recommended for a level 1 MOSFET.
Instance "m:x18:3": Width narrower than recommended for a level 1 MOSFET.
Instance "m:x18:1": Width narrower than recommended for a level 1 MOSFET.
Instance "m:x17:2": Width narrower than recommended for a level 1 MOSFET.
Instance "m:x17:3": Length shorter than recommended for a level 1 MOSFET.
Instance "m:x17:3": Width narrower than recommended for a level 1 MOSFET.
Instance "m:x17:1": Width narrower than recommended for a level 1 MOSFET.
Instance "m:x16:2": Width narrower than recommended for a level 1 MOSFET.
Instance "m:x16:3": Length shorter than recommended for a level 1 MOSFET.
Instance "m:x16:3": Width narrower than recommended for a level 1 MOSFET.
Instance "m:x16:1": Width narrower than recommended for a level 1 MOSFET.
Instance "m:x15:2": Width narrower than recommended for a level 1 MOSFET.
Instance "m:x15:3": Length shorter than recommended for a level 1 MOSFET.
Instance "m:x15:3": Width narrower than recommended for a level 1 MOSFET.
Instance "m:x15:1": Width narrower than recommended for a level 1 MOSFET.
Instance "m:x14:2": Width narrower than recommended for a level 1 MOSFET.
Instance "m:x14:3": Length shorter than recommended for a level 1 MOSFET.
Instance "m:x14:3": Width narrower than recommended for a level 1 MOSFET.
Instance "m:x14:1": Width narrower than recommended for a level 1 MOSFET.
Instance "m:x13:2": Width narrower than recommended for a level 1 MOSFET.
Instance "m:x13:3": Length shorter than recommended for a level 1 MOSFET.
Instance "m:x13:3": Width narrower than recommended for a level 1 MOSFET.
Instance "m:x13:1": Width narrower than recommended for a level 1 MOSFET.
Instance "m:x12:2": Width narrower than recommended for a level 1 MOSFET.
Instance "m:x12:3": Length shorter than recommended for a level 1 MOSFET.
Instance "m:x12:3": Width narrower than recommended for a level 1 MOSFET.
Instance "m:x12:1": Width narrower than recommended for a level 1 MOSFET.
Instance "m:x11:2": Width narrower than recommended for a level 1 MOSFET.
Instance "m:x11:3": Length shorter than recommended for a level 1 MOSFET.
Instance "m:x11:3": Width narrower than recommended for a level 1 MOSFET.
Instance "m:x11:1": Width narrower than recommended for a level 1 MOSFET.
Instance "m:x10:2": Width narrower than recommended for a level 1 MOSFET.
Instance "m:x10:3": Length shorter than recommended for a level 1 MOSFET.
Instance "m:x10:3": Width narrower than recommended for a level 1 MOSFET.
Instance "m:x10:1": Width narrower than recommended for a level 1 MOSFET.
Instance "m:x9:2": Width narrower than recommended for a level 1 MOSFET.
Instance "m:x9:3": Length shorter than recommended for a level 1 MOSFET.
Instance "m:x9:3": Width narrower than recommended for a level 1 MOSFET.
Instance "m:x9:1": Width narrower than recommended for a level 1 MOSFET.
Instance "m:x8:2": Width narrower than recommended for a level 1 MOSFET.
Instance "m:x8:3": Length shorter than recommended for a level 1 MOSFET.
Instance "m:x8:3": Width narrower than recommended for a level 1 MOSFET.
Instance "m:x8:1": Width narrower than recommended for a level 1 MOSFET.
Instance "m:x7:2": Width narrower than recommended for a level 1 MOSFET.
Instance "m:x7:3": Length shorter than recommended for a level 1 MOSFET.
Instance "m:x7:3": Width narrower than recommended for a level 1 MOSFET.
Instance "m:x7:1": Width narrower than recommended for a level 1 MOSFET.
Instance "m:x6:2": Width narrower than recommended for a level 1 MOSFET.
Instance "m:x6:3": Length shorter than recommended for a level 1 MOSFET.
Instance "m:x6:3": Width narrower than recommended for a level 1 MOSFET.
Instance "m:x6:1": Width narrower than recommended for a level 1 MOSFET.
Instance "m:x5:2": Width narrower than recommended for a level 1 MOSFET.
Instance "m:x5:3": Length shorter than recommended for a level 1 MOSFET.
Instance "m:x5:3": Width narrower than recommended for a level 1 MOSFET.
Instance "m:x5:1": Width narrower than recommended for a level 1 MOSFET.
Instance "m:x4:2": Width narrower than recommended for a level 1 MOSFET.
Instance "m:x4:3": Length shorter than recommended for a level 1 MOSFET.
Instance "m:x4:3": Width narrower than recommended for a level 1 MOSFET.
Instance "m:x4:1": Width narrower than recommended for a level 1 MOSFET.
Instance "m:x3:2": Width narrower than recommended for a level 1 MOSFET.
Instance "m:x3:3": Length shorter than recommended for a level 1 MOSFET.
Instance "m:x3:3": Width narrower than recommended for a level 1 MOSFET.
Instance "m:x3:1": Width narrower than recommended for a level 1 MOSFET.
Instance "m:x2:2": Width narrower than recommended for a level 1 MOSFET.
Instance "m:x2:3": Length shorter than recommended for a level 1 MOSFET.
Instance "m:x2:3": Width narrower than recommended for a level 1 MOSFET.
Instance "m:x2:1": Width narrower than recommended for a level 1 MOSFET.
Instance "m:x1:2": Width narrower than recommended for a level 1 MOSFET.
Instance "m:x1:3": Length shorter than recommended for a level 1 MOSFET.
Instance "m:x1:3": Width narrower than recommended for a level 1 MOSFET.
Instance "m:x1:1": Width narrower than recommended for a level 1 MOSFET.
Early termination of direct N-R iteration.
Direct Newton iteration failed to find .op point.  (Use ".option noopiter" to skip.)
Starting Gmin stepping
Gmin = 10
Gmin = 1.07374
Gmin = 0.115292
Gmin = 0.0123794
Gmin = 0.00132923
Gmin = 0.000142725
Gmin = 1.5325e-005
Gmin = 1.6455e-006
Gmin = 1.76685e-007
Gmin = 1.89714e-008
Gmin = 2.03704e-009
Gmin = 2.18725e-010
Gmin = 2.34854e-011
Gmin = 2.52173e-012
Gmin = 2.70769e-013
Gmin = 0
Gmin stepping succeeded in finding the operating point.

Changing Tseed to 1.95313e-010
Changing Tseed to 1.95312e-012
Changing Tseed to 1.95312e-009
Changing Tseed to 1.95313e-013
Changing Tseed to 1.95312e-008
Changing Tseed to 1.95312e-014
Changing Tseed to 1.95312e-007
Changing Tseed to 1.95312e-015
Changing Tseed to 1.95313e-006
Changing Tseed to 1.95312e-016
Changing Tseed to 1.95312e-005
Changing Tseed to 1.95312e-017
Heightened Def Con from 0 Changing Tseed to 1e-009
Changing Tseed to 1e-011
Changing Tseed to 1e-008
Changing Tseed to 1e-012
Changing Tseed to 1e-007
Changing Tseed to 1e-013
Changing Tseed to 1e-006
Changing Tseed to 1e-014
Changing Tseed to 1e-005
Changing Tseed to 1e-015
Changing Tseed to 0.0001
Changing Tseed to 1e-016
+Changing Tseed to 1e-009
Changing Tseed to 1e-011
Changing Tseed to 1e-008
Changing Tseed to 1e-012
Changing Tseed to 1e-007
Changing Tseed to 1e-013
Changing Tseed to 1e-006
Changing Tseed to 1e-014
Changing Tseed to 1e-005
Changing Tseed to 1e-015
Changing Tseed to 0.0001
Changing Tseed to 1e-016
+Changing Tseed to 1e-009
Changing Tseed to 1e-011
Changing Tseed to 1e-008
Changing Tseed to 1e-012
Changing Tseed to 1e-007
Changing Tseed to 1e-013
Changing Tseed to 1e-006
Changing Tseed to 1e-014
Changing Tseed to 1e-005
Changing Tseed to 1e-015
Changing Tseed to 0.0001
Changing Tseed to 1e-016
+Changing Tseed to 1e-009
Changing Tseed to 1e-011
Changing Tseed to 1e-008
Changing Tseed to 1e-012
Changing Tseed to 1e-007
Changing Tseed to 1e-013
Changing Tseed to 1e-006
Changing Tseed to 1e-014
Changing Tseed to 1e-005
Changing Tseed to 1e-015
Changing Tseed to 0.0001
Changing Tseed to 1e-016
+Changing Tseed to 1e-009
Changing Tseed to 1e-011
Changing Tseed to 1e-008
Changing Tseed to 1e-012
Changing Tseed to 1e-007
Changing Tseed to 1e-013
Changing Tseed to 1e-006
Changing Tseed to 1e-014
Changing Tseed to 1e-005
Changing Tseed to 1e-015
Changing Tseed to 0.0001
Changing Tseed to 1e-016
+Changing Tseed to 1e-009
Changing Tseed to 1e-011
Changing Tseed to 1e-008
Changing Tseed to 1e-012
Changing Tseed to 1e-007
Changing Tseed to 1e-013
Changing Tseed to 1e-006
Changing Tseed to 1e-014
Changing Tseed to 1e-005
Changing Tseed to 1e-015
Changing Tseed to 0.0001
Changing Tseed to 1e-016
+Changing Tseed to 1e-009
Changing Tseed to 1e-011
Changing Tseed to 1e-008
Changing Tseed to 1e-012
Changing Tseed to 1e-007
Changing Tseed to 1e-013
Changing Tseed to 1e-006
Changing Tseed to 1e-014
Changing Tseed to 1e-005
Changing Tseed to 1e-015
Changing Tseed to 0.0001
Changing Tseed to 1e-016
+Changing Tseed to 1e-009
Changing Tseed to 1e-011
Changing Tseed to 1e-008
Changing Tseed to 1e-012
Changing Tseed to 1e-007
Changing Tseed to 1e-013
Changing Tseed to 1e-006
Changing Tseed to 1e-014
Changing Tseed to 1e-005
Changing Tseed to 1e-015
Changing Tseed to 0.0001
Changing Tseed to 1e-016
+Changing Tseed to 1e-009
Changing Tseed to 1e-011
Changing Tseed to 1e-008
Changing Tseed to 1e-012
Changing Tseed to 1e-007
Changing Tseed to 1e-013
Changing Tseed to 1e-006
Changing Tseed to 1e-014
Changing Tseed to 1e-005
Changing Tseed to 1e-015
Changing Tseed to 0.0001
Changing Tseed to 1e-016
+Changing Tseed to 1e-009
Changing Tseed to 1e-011
Changing Tseed to 1e-008
Changing Tseed to 1e-012
Changing Tseed to 1e-007
Changing Tseed to 1e-013
Changing Tseed to 1e-006
Changing Tseed to 1e-014
Changing Tseed to 1e-005
Changing Tseed to 1e-015
Changing Tseed to 0.0001
Changing Tseed to 1e-016
+Changing Tseed to 1e-009
Changing Tseed to 1e-011
Changing Tseed to 1e-008
Changing Tseed to 1e-012
Changing Tseed to 1e-007
Changing Tseed to 1e-013
Changing Tseed to 1e-006
Changing Tseed to 1e-014
Changing Tseed to 1e-005
Changing Tseed to 1e-015
Changing Tseed to 0.0001
Changing Tseed to 1e-016
+Changing Tseed to 1e-009
Changing Tseed to 1e-011
Changing Tseed to 1e-008
Changing Tseed to 1e-012
Changing Tseed to 1e-007
Changing Tseed to 1e-013
Changing Tseed to 1e-006
Changing Tseed to 1e-014
Changing Tseed to 1e-005
Changing Tseed to 1e-015
Changing Tseed to 0.0001
Changing Tseed to 1e-016
+Changing Tseed to 1e-009
Changing Tseed to 1e-011
Changing Tseed to 1e-008
Changing Tseed to 1e-012
Changing Tseed to 1e-007
Changing Tseed to 1e-013
Changing Tseed to 1e-006
Changing Tseed to 1e-014
Changing Tseed to 1e-005
Changing Tseed to 1e-015
Changing Tseed to 0.0001
Changing Tseed to 1e-016
+Changing Tseed to 1e-009
Changing Tseed to 1e-011
Changing Tseed to 1e-008
Changing Tseed to 1e-012
Changing Tseed to 1e-007
Changing Tseed to 1e-013
Changing Tseed to 1e-006
Changing Tseed to 1e-014
Changing Tseed to 1e-005
Changing Tseed to 1e-015
Changing Tseed to 0.0001
Changing Tseed to 1e-016
+Changing Tseed to 1e-009
Changing Tseed to 1e-011
Changing Tseed to 1e-008
Changing Tseed to 1e-012
Changing Tseed to 1e-007
Changing Tseed to 1e-013
Changing Tseed to 1e-006
Changing Tseed to 1e-014
Changing Tseed to 1e-005
Changing Tseed to 1e-015
Changing Tseed to 0.0001
Changing Tseed to 1e-016
+Changing Tseed to 1e-009
Changing Tseed to 1e-011
Changing Tseed to 1e-008
Changing Tseed to 1e-012
Changing Tseed to 1e-007
Changing Tseed to 1e-013
Changing Tseed to 1e-006
Changing Tseed to 1e-014
Changing Tseed to 1e-005
Changing Tseed to 1e-015
Changing Tseed to 0.0001
Changing Tseed to 1e-016
+Changing Tseed to 1e-009
Changing Tseed to 1e-011
Changing Tseed to 1e-008
Changing Tseed to 1e-012
Changing Tseed to 1e-007
Changing Tseed to 1e-013
Changing Tseed to 1e-006
Changing Tseed to 1e-014
Changing Tseed to 1e-005
Changing Tseed to 1e-015
Changing Tseed to 0.0001
Changing Tseed to 1e-016
+to 1.125e-010
Heightened Def Con from 1.125e-010 +++++++++++++++++to 1.1125e-009
Heightened Def Con from 1.1125e-009 +++++++++++++++++to 2.1125e-009
Heightened Def Con from 2.1125e-009 +++++++++++++++++to 3.1125e-009
Heightened Def Con from 3.1125e-009 +++++++++++++++++to 4.1125e-009
Heightened Def Con from 4.1125e-009 +++++++++++++++++to 5.1125e-009
Heightened Def Con from 5.1125e-009 +++++++++++++++++to 6.1125e-009
Heightened Def Con from 6.1125e-009 +++++++++++++++++to 7.1125e-009
Heightened Def Con from 7.1125e-009 +++++++++++++++++to 8.1125e-009
Heightened Def Con from 8.1125e-009 +++++++++++++++++to 9.1125e-009
Heightened Def Con from 9.1125e-009 +++++++++++++++++to 1.01125e-008
Heightened Def Con from 1.01125e-008 +++++++++++++++++to 1.11125e-008
Heightened Def Con from 1.11125e-008 +++++++++++++++++to 1.21125e-008
Heightened Def Con from 1.21125e-008 +++++++++++++++++to 1.31125e-008
Heightened Def Con from 1.31125e-008 +++++++++++++++++to 1.41125e-008
Heightened Def Con from 1.41125e-008 +++++++++++++++++to 1.51125e-008
Heightened Def Con from 1.51125e-008 +++++++++++++++++to 1.61125e-008
Heightened Def Con from 1.61125e-008 +++++++++++++++++to 1.71125e-008
Heightened Def Con from 1.71125e-008 +++++++++++++++++to 1.81125e-008
Heightened Def Con from 1.81125e-008 +++++++++++++++++to 1.91125e-008
Heightened Def Con from 1.91125e-008 +++++++++++++++++to 2.01125e-008
Heightened Def Con from 2.01125e-008 +++++++++++++++++to 2.11125e-008
Heightened Def Con from 2.11125e-008 +++++++++++++++++to 2.21125e-008
Heightened Def Con from 2.21125e-008 +++++++++++++++++to 2.31125e-008
Heightened Def Con from 2.31125e-008 +++++++++++++++++to 2.41125e-008
Heightened Def Con from 2.41125e-008 +++++++++++++++++to 2.51125e-008
Heightened Def Con from 2.51125e-008 +++++++++++++++++to 2.61125e-008
Heightened Def Con from 2.61125e-008 +++++++++++++++++to 2.71125e-008
Heightened Def Con from 2.71125e-008 +++++++++++++++++to 2.81125e-008
Heightened Def Con from 2.81125e-008 +++++++++++++++++to 2.91125e-008
Heightened Def Con from 2.91125e-008 +++++++++++++++++to 3.01125e-008
Heightened Def Con from 3.01125e-008 +++++++++++++++++to 3.11125e-008
Heightened Def Con from 3.11125e-008 +++++++++++++++++to 3.21125e-008
Heightened Def Con from 3.21125e-008 +++++++++++++++++to 3.31125e-008
Heightened Def Con from 3.31125e-008 +++++++++++++++++to 3.41125e-008
Heightened Def Con from 3.41125e-008 +++++++++++++++++to 3.51125e-008
Heightened Def Con from 3.51125e-008 +++++++++++++++++to 3.61125e-008
Heightened Def Con from 3.61125e-008 +++++++++++++++++to 3.71125e-008
Heightened Def Con from 3.71125e-008 +++++++++++++++++to 3.81125e-008
Heightened Def Con from 3.81125e-008 +++++++++++++++++to 3.91125e-008
Heightened Def Con from 3.91125e-008 +++++++++++++++++to 4.01125e-008
Heightened Def Con from 4.01125e-008 +++++++++++++++++to 4.11125e-008
Heightened Def Con from 4.11125e-008 +++++++++++++++++to 4.21125e-008
Heightened Def Con from 4.21125e-008 +++++++++++++++++to 4.31125e-008
Heightened Def Con from 4.31125e-008 +++++++++++++++++to 4.41125e-008
Heightened Def Con from 4.41125e-008 +++++++++++++++++to 4.51125e-008
Heightened Def Con from 4.51125e-008 +++++++++++++++++to 4.61125e-008
Heightened Def Con from 4.61125e-008 +++++++++++++++++to 4.71125e-008
Heightened Def Con from 4.71125e-008 +++++++++++++++++to 4.81125e-008
Heightened Def Con from 4.81125e-008 +++++++++++++++++to 4.91125e-008
Heightened Def Con from 4.91125e-008 +++++++++++++++++to 5.01125e-008
Heightened Def Con from 5.01125e-008 +++++++++++++++++to 5.11125e-008
Heightened Def Con from 5.11125e-008 +++++++++++++++++to 5.21125e-008
Heightened Def Con from 5.21125e-008 +++++++++++++++++to 5.31125e-008
Heightened Def Con from 5.31125e-008 +++++++++++++++++to 5.41125e-008
Heightened Def Con from 5.41125e-008 +++++++++++++++++to 5.51125e-008
Heightened Def Con from 5.51125e-008 +++++++++++++++++to 5.61125e-008
Heightened Def Con from 5.61125e-008 +++++++++++++++++to 5.71125e-008
Heightened Def Con from 5.71125e-008 +++++++++++++++++to 5.81125e-008
Heightened Def Con from 5.81125e-008 +++++++++++++++++to 5.91125e-008
Heightened Def Con from 5.91125e-008 +++++++++++++++++to 6.01125e-008
Heightened Def Con from 6.01125e-008 +++++++++++++++++to 6.11125e-008
Heightened Def Con from 6.11125e-008 +++++++++++++++++to 6.21125e-008
Heightened Def Con from 6.21125e-008 +++++++++++++++++to 6.31125e-008
Heightened Def Con from 6.31125e-008 +++++++++++++++++to 6.41125e-008
Heightened Def Con from 6.41125e-008 +++++++++++++++++to 6.51125e-008
Heightened Def Con from 6.51125e-008 +++++++++++++++++to 6.61125e-008
Heightened Def Con from 6.61125e-008 +++++++++++++++++to 6.71125e-008
Heightened Def Con from 6.71125e-008 +++++++++++++++++to 6.81125e-008
Heightened Def Con from 6.81125e-008 +++++++++++++++++to 6.91125e-008
Heightened Def Con from 6.91125e-008 +++++++++++++++++to 7.01125e-008
Heightened Def Con from 7.01125e-008 +++++++++++++++++to 7.11125e-008
Heightened Def Con from 7.11125e-008 +++++++++++++++++to 7.21125e-008
Heightened Def Con from 7.21125e-008 +++++++++++++++++to 7.31125e-008
Heightened Def Con from 7.31125e-008 +++++++++++++++++to 7.41125e-008
Heightened Def Con from 7.41125e-008 +++++++++++++++++to 7.51125e-008
Heightened Def Con from 7.51125e-008 +++++++++++++++++to 7.61125e-008
Heightened Def Con from 7.61125e-008 +++++++++++++++++to 7.71125e-008
Heightened Def Con from 7.71125e-008 +++++++++++++++++to 7.81125e-008
Heightened Def Con from 7.81125e-008 +++++++++++++++++to 7.91125e-008
Heightened Def Con from 7.91125e-008 +++++++++++++++++to 8.01125e-008
Heightened Def Con from 8.01125e-008 +++++++++++++++++to 8.11125e-008
Heightened Def Con from 8.11125e-008 +++++++++++++++++to 8.21125e-008
Heightened Def Con from 8.21125e-008 +++++++++++++++++to 8.31125e-008
Heightened Def Con from 8.31125e-008 +++++++++++++++++to 8.41125e-008
Heightened Def Con from 8.41125e-008 +++++++++++++++++to 8.51125e-008
Heightened Def Con from 8.51125e-008 +++++++++++++++++to 8.61125e-008
Heightened Def Con from 8.61125e-008 +++++++++++++++++to 8.71125e-008
Heightened Def Con from 8.71125e-008 +++++++++++++++++to 8.81125e-008
Heightened Def Con from 8.81125e-008 +++++++++++++++++to 8.91125e-008
Heightened Def Con from 8.91125e-008 +++++++++++++++++to 9.01125e-008
Heightened Def Con from 9.01125e-008 +++++++++++++++++to 9.11125e-008
Heightened Def Con from 9.11125e-008 +++++++++++++++++to 9.21125e-008
Heightened Def Con from 9.21125e-008 +++++++++++++++++to 9.31125e-008
Heightened Def Con from 9.31125e-008 +++++++++++++++++to 9.41125e-008
Heightened Def Con from 9.41125e-008 +++++++++++++++++to 9.51125e-008
Heightened Def Con from 9.51125e-008 +++++++++++++++++to 9.61125e-008
Heightened Def Con from 9.61125e-008 +++++++++++++++++to 9.71125e-008
Heightened Def Con from 9.71125e-008 +++++++++++++++++to 9.81125e-008
Heightened Def Con from 9.81125e-008 +++++++++++++++++to 9.91125e-008
Heightened Def Con from 9.91125e-008 +++++++++++++++++to 1.00113e-007
Heightened Def Con from 1.00113e-007 +++++++++++++++++to 1.01113e-007
Heightened Def Con from 1.01113e-007 +++++++++++++++++to 1.02113e-007
Heightened Def Con from 1.02113e-007 +++++++++++++++++to 1.03113e-007
Heightened Def Con from 1.03113e-007 +++++++++++++++++to 1.04113e-007
Heightened Def Con from 1.04113e-007 +++++++++++++++++to 1.05113e-007
Heightened Def Con from 1.05113e-007 +++++++++++++++++to 1.06113e-007
Heightened Def Con from 1.06113e-007 +++++++++++++++++to 1.07113e-007
Heightened Def Con from 1.07113e-007 +++++++++++++++++to 1.08113e-007
Heightened Def Con from 1.08113e-007 +++++++++++++++++to 1.09113e-007
Heightened Def Con from 1.09113e-007 +++++++++++++++++to 1.10113e-007
Heightened Def Con from 1.10113e-007 +++++++++++++++++to 1.11113e-007
Heightened Def Con from 1.11113e-007 +++++++++++++++++to 1.12113e-007
Heightened Def Con from 1.12113e-007 +++++++++++++++++to 1.13113e-007
Heightened Def Con from 1.13113e-007 +++++++++++++++++to 1.14113e-007
Heightened Def Con from 1.14113e-007 +++++++++++++++++to 1.15113e-007
Heightened Def Con from 1.15113e-007 +++++++++++++++++to 1.16113e-007
Heightened Def Con from 1.16113e-007 +++++++++++++++++to 1.17113e-007
Heightened Def Con from 1.17113e-007 +++++++++++++++++to 1.18113e-007
Heightened Def Con from 1.18113e-007 +++++++++++++++++to 1.19113e-007
Heightened Def Con from 1.19113e-007 +++++++++++++++++to 1.20113e-007
Heightened Def Con from 1.20113e-007 +++++++++++++++++to 1.21113e-007
Heightened Def Con from 1.21113e-007 +++++++++++++++++to 1.22113e-007
Heightened Def Con from 1.22113e-007 +++++++++++++++++to 1.23113e-007
Heightened Def Con from 1.23113e-007 +++++++++++++++++to 1.24113e-007
Heightened Def Con from 1.24113e-007 +++++++++++++++++to 1.25113e-007
Heightened Def Con from 1.25113e-007 +++++++++++++++++to 1.26113e-007
Heightened Def Con from 1.26113e-007 +++++++++++++++++to 1.27113e-007
Heightened Def Con from 1.27113e-007 +++++++++++++++++to 1.28113e-007
Heightened Def Con from 1.28113e-007 +++++++++++++++++to 1.29113e-007
Heightened Def Con from 1.29113e-007 +++++++++++++++++to 1.30113e-007
Heightened Def Con from 1.30113e-007 +++++++++++++++++to 1.31113e-007
Heightened Def Con from 1.31113e-007 +++++++++++++++++to 1.32113e-007
Heightened Def Con from 1.32113e-007 +++++++++++++++++to 1.33113e-007
Heightened Def Con from 1.33113e-007 +++++++++++++++++to 1.34113e-007
Heightened Def Con from 1.34113e-007 +++++++++++++++++to 1.35113e-007
Heightened Def Con from 1.35113e-007 +++++++++++++++++to 1.36113e-007
Heightened Def Con from 1.36113e-007 +++++++++++++++++to 1.37113e-007
Heightened Def Con from 1.37113e-007 +++++++++++++++++to 1.38113e-007
Heightened Def Con from 1.38113e-007 +++++++++++++++++to 1.39113e-007
Heightened Def Con from 1.39113e-007 +++++++++++++++++to 1.40113e-007
Heightened Def Con from 1.40113e-007 +++++++++++++++++to 1.41113e-007
Heightened Def Con from 1.41113e-007 +++++++++++++++++to 1.42113e-007
Heightened Def Con from 1.42113e-007 +++++++++++++++++to 1.43113e-007
Heightened Def Con from 1.43113e-007 +++++++++++++++++to 1.44113e-007
Heightened Def Con from 1.44113e-007 +++++++++++++++++to 1.45113e-007
Heightened Def Con from 1.45113e-007 +++++++++++++++++to 1.46113e-007
Heightened Def Con from 1.46113e-007 +++++++++++++++++to 1.47113e-007
Heightened Def Con from 1.47113e-007 +++++++++++++++++to 1.48113e-007
Heightened Def Con from 1.48113e-007 +++++++++++++++++to 1.49113e-007
Heightened Def Con from 1.49113e-007 +++++++++++++++++to 1.50113e-007
Heightened Def Con from 1.50113e-007 +++++++++++++++++to 1.51113e-007
Heightened Def Con from 1.51113e-007 +++++++++++++++++to 1.52113e-007
Heightened Def Con from 1.52113e-007 +++++++++++++++++to 1.53113e-007
Heightened Def Con from 1.53113e-007 +++++++++++++++++to 1.54113e-007
Heightened Def Con from 1.54113e-007 +++++++++++++++++to 1.55113e-007
Heightened Def Con from 1.55113e-007 +++++++++++++++++to 1.56113e-007
Heightened Def Con from 1.56113e-007 +++++++++++++++++to 1.57113e-007
Heightened Def Con from 1.57113e-007 +++++++++++++++++to 1.58113e-007
Heightened Def Con from 1.58113e-007 +++++++++++++++++to 1.59113e-007
Heightened Def Con from 1.59113e-007 +++++++++++++++++to 1.60113e-007
Heightened Def Con from 1.60113e-007 +++++++++++++++++to 1.61113e-007
Heightened Def Con from 1.61113e-007 +++++++++++++++++to 1.62113e-007
Heightened Def Con from 1.62113e-007 +++++++++++++++++to 1.63113e-007
Heightened Def Con from 1.63113e-007 +++++++++++++++++to 1.64113e-007
Heightened Def Con from 1.64113e-007 +++++++++++++++++to 1.65113e-007
Heightened Def Con from 1.65113e-007 +++++++++++++++++to 1.66113e-007
Heightened Def Con from 1.66113e-007 +++++++++++++++++to 1.67113e-007
Heightened Def Con from 1.67113e-007 +++++++++++++++++to 1.68113e-007
Heightened Def Con from 1.68113e-007 +++++++++++++++++to 1.69113e-007
Heightened Def Con from 1.69113e-007 +++++++++++++++++to 1.70113e-007
Heightened Def Con from 1.70113e-007 +++++++++++++++++to 1.71113e-007
Heightened Def Con from 1.71113e-007 +++++++++++++++++to 1.72113e-007
Heightened Def Con from 1.72113e-007 +++++++++++++++++to 1.73113e-007
Heightened Def Con from 1.73113e-007 +++++++++++++++++to 1.74113e-007
Heightened Def Con from 1.74113e-007 +++++++++++++++++to 1.75113e-007
Heightened Def Con from 1.75113e-007 +++++++++++++++++to 1.76113e-007
Heightened Def Con from 1.76113e-007 +++++++++++++++++to 1.77113e-007
Heightened Def Con from 1.77113e-007 +++++++++++++++++to 1.78113e-007
Heightened Def Con from 1.78113e-007 +++++++++++++++++to 1.79113e-007
Heightened Def Con from 1.79113e-007 +++++++++++++++++to 1.80113e-007
Heightened Def Con from 1.80113e-007 +++++++++++++++++to 1.81113e-007
Heightened Def Con from 1.81113e-007 +++++++++++++++++to 1.82113e-007
Heightened Def Con from 1.82113e-007 +++++++++++++++++to 1.83113e-007
Heightened Def Con from 1.83113e-007 +++++++++++++++++to 1.84113e-007
Heightened Def Con from 1.84113e-007 +++++++++++++++++to 1.85113e-007
Heightened Def Con from 1.85113e-007 +++++++++++++++++to 1.86113e-007
Heightened Def Con from 1.86113e-007 +++++++++++++++++to 1.87113e-007
Heightened Def Con from 1.87113e-007 +++++++++++++++++to 1.88113e-007
Heightened Def Con from 1.88113e-007 +++++++++++++++++to 1.89113e-007
Heightened Def Con from 1.89113e-007 +++++++++++++++++to 1.90113e-007
Heightened Def Con from 1.90113e-007 +++++++++++++++++to 1.91113e-007
Heightened Def Con from 1.91113e-007 +++++++++++++++++to 1.92113e-007
Heightened Def Con from 1.92113e-007 +++++++++++++++++to 1.93113e-007
Heightened Def Con from 1.93113e-007 +++++++++++++++++to 1.94113e-007
Heightened Def Con from 1.94113e-007 +++++++++++++++++to 1.95113e-007
Heightened Def Con from 1.95113e-007 +++++++++++++++++to 1.96113e-007
Heightened Def Con from 1.96113e-007 +++++++++++++++++to 1.97113e-007
Heightened Def Con from 1.97113e-007 +++++++++++++++++to 1.98113e-007
Heightened Def Con from 1.98113e-007 +++++++++++++++++to 1.99113e-007
Heightened Def Con from 1.99113e-007 +++++++++++++++++to 2.00113e-007
Heightened Def Con from 2.00113e-007 +++++++++++++++++to 2.01113e-007
Heightened Def Con from 2.01113e-007 +++++++++++++++++to 2.02113e-007
Heightened Def Con from 2.02113e-007 +++++++++++++++++to 2.03113e-007
Heightened Def Con from 2.03113e-007 +++++++++++++++++to 2.04113e-007
Heightened Def Con from 2.04113e-007 +++++++++++++++++to 2.05113e-007
Heightened Def Con from 2.05113e-007 +++++++++++++++++to 2.06113e-007
Heightened Def Con from 2.06113e-007 +++++++++++++++++to 2.07113e-007
Heightened Def Con from 2.07113e-007 +++++++++++++++++to 2.08113e-007
Heightened Def Con from 2.08113e-007 +++++++++++++++++to 2.09113e-007
Heightened Def Con from 2.09113e-007 +++++++++++++++++to 2.10113e-007
Heightened Def Con from 2.10113e-007 +++++++++++++++++to 2.11113e-007
Heightened Def Con from 2.11113e-007 +++++++++++++++++to 2.12113e-007
Heightened Def Con from 2.12113e-007 +++++++++++++++++to 2.13113e-007
Heightened Def Con from 2.13113e-007 +++++++++++++++++to 2.14113e-007
Heightened Def Con from 2.14113e-007 +++++++++++++++++to 2.15113e-007
Heightened Def Con from 2.15113e-007 +++++++++++++++++to 2.16113e-007
Heightened Def Con from 2.16113e-007 +++++++++++++++++to 2.17113e-007
Heightened Def Con from 2.17113e-007 +++++++++++++++++to 2.18113e-007
Heightened Def Con from 2.18113e-007 +++++++++++++++++to 2.19113e-007
Heightened Def Con from 2.19113e-007 +++++++++++++++++to 2.20113e-007
Heightened Def Con from 2.20113e-007 +++++++++++++++++to 2.21113e-007
Heightened Def Con from 2.21113e-007 +++++++++++++++++to 2.22113e-007
Heightened Def Con from 2.22113e-007 +++++++++++++++++to 2.23113e-007
Heightened Def Con from 2.23113e-007 +++++++++++++++++to 2.24113e-007
Heightened Def Con from 2.24113e-007 +++++++++++++++++to 2.25113e-007
Heightened Def Con from 2.25113e-007 +++++++++++++++++to 2.26113e-007
Heightened Def Con from 2.26113e-007 +++++++++++++++++to 2.27113e-007
Heightened Def Con from 2.27113e-007 +++++++++++++++++to 2.28113e-007
Heightened Def Con from 2.28113e-007 +++++++++++++++++to 2.29113e-007
Heightened Def Con from 2.29113e-007 +++++++++++++++++to 2.30113e-007
Heightened Def Con from 2.30113e-007 +++++++++++++++++to 2.31113e-007
Heightened Def Con from 2.31113e-007 +++++++++++++++++to 2.32113e-007
Heightened Def Con from 2.32113e-007 +++++++++++++++++to 2.33113e-007
Heightened Def Con from 2.33113e-007 +++++++++++++++++to 2.34113e-007
Heightened Def Con from 2.34113e-007 +++++++++++++++++to 2.35113e-007
Heightened Def Con from 2.35113e-007 +++++++++++++++++to 2.36113e-007
Heightened Def Con from 2.36113e-007 +++++++++++++++++to 2.37113e-007
Heightened Def Con from 2.37113e-007 +++++++++++++++++to 2.38113e-007
Heightened Def Con from 2.38113e-007 +++++++++++++++++to 2.39113e-007
Heightened Def Con from 2.39113e-007 +++++++++++++++++to 2.40113e-007
Heightened Def Con from 2.40113e-007 +++++++++++++++++to 2.41113e-007
Heightened Def Con from 2.41113e-007 +++++++++++++++++to 2.42113e-007
Heightened Def Con from 2.42113e-007 +++++++++++++++++to 2.43113e-007
Heightened Def Con from 2.43113e-007 +++++++++++++++++to 2.44113e-007
Heightened Def Con from 2.44113e-007 +++++++++++++++++to 2.45113e-007
Heightened Def Con from 2.45113e-007 +++++++++++++++++to 2.46113e-007
Heightened Def Con from 2.46113e-007 +++++++++++++++++to 2.47113e-007
Heightened Def Con from 2.47113e-007 +++++++++++++++++to 2.48113e-007
Heightened Def Con from 2.48113e-007 +++++++++++++++++to 2.49113e-007
Heightened Def Con from 2.49113e-007 +++++++++++++++++to 2.50113e-007
Heightened Def Con from 2.50113e-007 +++++++++++++++++to 2.51113e-007
Heightened Def Con from 2.51113e-007 +++++++++++++++++to 2.52113e-007
Heightened Def Con from 2.52113e-007 +++++++++++++++++to 2.53113e-007
Heightened Def Con from 2.53113e-007 +++++++++++++++++to 2.54113e-007
Heightened Def Con from 2.54113e-007 +++++++++++++++++to 2.55113e-007
Heightened Def Con from 2.55113e-007 +++++++++++++++++to 2.56113e-007
Heightened Def Con from 2.56113e-007 +++++++++++++++++to 2.57113e-007
Heightened Def Con from 2.57113e-007 +++++++++++++++++to 2.58113e-007
Heightened Def Con from 2.58113e-007 +++++++++++++++++to 2.59113e-007
Heightened Def Con from 2.59113e-007 +++++++++++++++++to 2.60113e-007
Heightened Def Con from 2.60113e-007 +++++++++++++++++to 2.61113e-007
Heightened Def Con from 2.61113e-007 +++++++++++++++++to 2.62113e-007
Heightened Def Con from 2.62113e-007 +++++++++++++++++to 2.63113e-007
Heightened Def Con from 2.63113e-007 +++++++++++++++++to 2.64113e-007
Heightened Def Con from 2.64113e-007 +++++++++++++++++to 2.65113e-007
Heightened Def Con from 2.65113e-007 +++++++++++++++++to 2.66113e-007
Heightened Def Con from 2.66113e-007 +++++++++++++++++to 2.67113e-007
Heightened Def Con from 2.67113e-007 +++++++++++++++++to 2.68113e-007
Heightened Def Con from 2.68113e-007 +++++++++++++++++to 2.69113e-007
Heightened Def Con from 2.69113e-007 +++++++++++++++++to 2.70113e-007
Heightened Def Con from 2.70113e-007 +++++++++++++++++to 2.71113e-007
Heightened Def Con from 2.71113e-007 +++++++++++++++++to 2.72113e-007
Heightened Def Con from 2.72113e-007 +++++++++++++++++to 2.73113e-007
Heightened Def Con from 2.73113e-007 +++++++++++++++++to 2.74113e-007
Heightened Def Con from 2.74113e-007 +++++++++++++++++to 2.75113e-007
Heightened Def Con from 2.75113e-007 +++++++++++++++++to 2.76113e-007
Heightened Def Con from 2.76113e-007 +++++++++++++++++to 2.77113e-007
Heightened Def Con from 2.77113e-007 +++++++++++++++++to 2.78113e-007
Heightened Def Con from 2.78113e-007 +++++++++++++++++to 2.79113e-007
Heightened Def Con from 2.79113e-007 +++++++++++++++++to 2.80113e-007
Heightened Def Con from 2.80113e-007 +++++++++++++++++to 2.81113e-007
Heightened Def Con from 2.81113e-007 +++++++++++++++++to 2.82113e-007
Heightened Def Con from 2.82113e-007 +++++++++++++++++to 2.83113e-007
Heightened Def Con from 2.83113e-007 +++++++++++++++++to 2.84113e-007
Heightened Def Con from 2.84113e-007 +++++++++++++++++to 2.85113e-007
Heightened Def Con from 2.85113e-007 +++++++++++++++++to 2.86113e-007
Heightened Def Con from 2.86113e-007 +++++++++++++++++to 2.87113e-007
Heightened Def Con from 2.87113e-007 +++++++++++++++++to 2.88113e-007
Heightened Def Con from 2.88113e-007 +++++++++++++++++to 2.89113e-007
Heightened Def Con from 2.89113e-007 +++++++++++++++++to 2.90113e-007
Heightened Def Con from 2.90113e-007 +++++++++++++++++to 2.91113e-007
Heightened Def Con from 2.91113e-007 +++++++++++++++++to 2.92113e-007
Heightened Def Con from 2.92113e-007 +++++++++++++++++to 2.93113e-007
Heightened Def Con from 2.93113e-007 +++++++++++++++++to 2.94113e-007
Heightened Def Con from 2.94113e-007 +++++++++++++++++to 2.95113e-007
Heightened Def Con from 2.95113e-007 +++++++++++++++++to 2.96113e-007
Heightened Def Con from 2.96113e-007 +++++++++++++++++to 2.97113e-007
Heightened Def Con from 2.97113e-007 +++++++++++++++++to 2.98113e-007
Heightened Def Con from 2.98113e-007 +++++++++++++++++to 2.99113e-007
Heightened Def Con from 2.99113e-007 +++++++++++++++++to 3.00113e-007
Heightened Def Con from 3.00113e-007 +++++++++++++++++to 3.01113e-007
Heightened Def Con from 3.01113e-007 +++++++++++++++++to 3.02113e-007
Heightened Def Con from 3.02113e-007 +++++++++++++++++to 3.03113e-007
Heightened Def Con from 3.03113e-007 +++++++++++++++++to 3.04113e-007
Heightened Def Con from 3.04113e-007 +++++++++++++++++to 3.05113e-007
Heightened Def Con from 3.05113e-007 +++++++++++++++++to 3.06113e-007
Heightened Def Con from 3.06113e-007 +++++++++++++++++to 3.07113e-007
Heightened Def Con from 3.07113e-007 +++++++++++++++++to 3.08113e-007
Heightened Def Con from 3.08113e-007 +++++++++++++++++to 3.09113e-007
Heightened Def Con from 3.09113e-007 +++++++++++++++++to 3.10113e-007
Heightened Def Con from 3.10113e-007 +++++++++++++++++to 3.11113e-007
Heightened Def Con from 3.11113e-007 +++++++++++++++++to 3.12113e-007
Heightened Def Con from 3.12113e-007 +++++++++++++++++to 3.13113e-007
Heightened Def Con from 3.13113e-007 +++++++++++++++++to 3.14113e-007
Heightened Def Con from 3.14113e-007 +++++++++++++++++to 3.15113e-007
Heightened Def Con from 3.15113e-007 +++++++++++++++++to 3.16113e-007
Heightened Def Con from 3.16113e-007 +++++++++++++++++to 3.17113e-007
Heightened Def Con from 3.17113e-007 +++++++++++++++++to 3.18113e-007
Heightened Def Con from 3.18113e-007 +++++++++++++++++to 3.19113e-007
Heightened Def Con from 3.19113e-007 +++++++++++++++++to 3.20113e-007
Heightened Def Con from 3.20113e-007 +++++++++++++++++to 3.21113e-007
Heightened Def Con from 3.21113e-007 +++++++++++++++++to 3.22113e-007
Heightened Def Con from 3.22113e-007 +++++++++++++++++to 3.23113e-007
Heightened Def Con from 3.23113e-007 +++++++++++++++++to 3.24113e-007
Heightened Def Con from 3.24113e-007 +++++++++++++++++to 3.25113e-007
Heightened Def Con from 3.25113e-007 +++++++++++++++++to 3.26113e-007
Heightened Def Con from 3.26113e-007 +++++++++++++++++to 3.27113e-007
Heightened Def Con from 3.27113e-007 +++++++++++++++++to 3.28113e-007
Heightened Def Con from 3.28113e-007 +++++++++++++++++to 3.29113e-007
Heightened Def Con from 3.29113e-007 +++++++++++++++++to 3.30113e-007
Heightened Def Con from 3.30113e-007 +++++++++++++++++to 3.31113e-007
Heightened Def Con from 3.31113e-007 +++++++++++++++++to 3.32113e-007
Heightened Def Con from 3.32113e-007 +++++++++++++++++to 3.33113e-007
Heightened Def Con from 3.33113e-007 +++++++++++++++++to 3.34113e-007
Heightened Def Con from 3.34113e-007 +++++++++++++++++to 3.35113e-007
Heightened Def Con from 3.35113e-007 +++++++++++++++++to 3.36113e-007
Heightened Def Con from 3.36113e-007 +++++++++++++++++to 3.37113e-007
Heightened Def Con from 3.37113e-007 +++++++++++++++++to 3.38113e-007
Heightened Def Con from 3.38113e-007 +++++++++++++++++to 3.39113e-007
Heightened Def Con from 3.39113e-007 +++++++++++++++++to 3.40113e-007
Heightened Def Con from 3.40113e-007 +++++++++++++++++to 3.41113e-007
Heightened Def Con from 3.41113e-007 +++++++++++++++++to 3.42113e-007
Heightened Def Con from 3.42113e-007 +++++++++++++++++to 3.43113e-007
Heightened Def Con from 3.43113e-007 +++++++++++++++++to 3.44113e-007
Heightened Def Con from 3.44113e-007 +++++++++++++++++to 3.45113e-007
Heightened Def Con from 3.45113e-007 +++++++++++++++++to 3.46113e-007
Heightened Def Con from 3.46113e-007 +++++++++++++++++to 3.47113e-007
Heightened Def Con from 3.47113e-007 +++++++++++++++++to 3.48113e-007
Heightened Def Con from 3.48113e-007 +++++++++++++++++to 3.49113e-007
Heightened Def Con from 3.49113e-007 +++++++++++++++++to 3.50113e-007
Heightened Def Con from 3.50113e-007 +++++++++++++++++to 3.51113e-007
Heightened Def Con from 3.51113e-007 +++++++++++++++++to 3.52113e-007
Heightened Def Con from 3.52113e-007 +++++++++++++++++to 3.53113e-007
Heightened Def Con from 3.53113e-007 +++++++++++++++++to 3.54113e-007
Heightened Def Con from 3.54113e-007 +++++++++++++++++to 3.55113e-007
Heightened Def Con from 3.55113e-007 +++++++++++++++++to 3.56113e-007
Heightened Def Con from 3.56113e-007 +++++++++++++++++to 3.57113e-007
Heightened Def Con from 3.57113e-007 +++++++++++++++++to 3.58113e-007
Heightened Def Con from 3.58113e-007 +++++++++++++++++to 3.59113e-007
Heightened Def Con from 3.59113e-007 +++++++++++++++++to 3.60113e-007
Heightened Def Con from 3.60113e-007 +++++++++++++++++to 3.61113e-007
Heightened Def Con from 3.61113e-007 +++++++++++++++++to 3.62113e-007
Heightened Def Con from 3.62113e-007 +++++++++++++++++to 3.63113e-007
Heightened Def Con from 3.63113e-007 +++++++++++++++++to 3.64113e-007
Heightened Def Con from 3.64113e-007 +++++++++++++++++to 3.65113e-007
Heightened Def Con from 3.65113e-007 +++++++++++++++++to 3.66113e-007
Heightened Def Con from 3.66113e-007 +++++++++++++++++to 3.67113e-007
Heightened Def Con from 3.67113e-007 +++++++++++++++++to 3.68113e-007
Heightened Def Con from 3.68113e-007 +++++++++++++++++to 3.69113e-007
Heightened Def Con from 3.69113e-007 +++++++++++++++++to 3.70113e-007
Heightened Def Con from 3.70113e-007 +++++++++++++++++to 3.71113e-007
Heightened Def Con from 3.71113e-007 +++++++++++++++++to 3.72113e-007
Heightened Def Con from 3.72113e-007 +++++++++++++++++to 3.73113e-007
Heightened Def Con from 3.73113e-007 +++++++++++++++++to 3.74113e-007
Heightened Def Con from 3.74113e-007 +++++++++++++++++to 3.75113e-007
Heightened Def Con from 3.75113e-007 +++++++++++++++++to 3.76113e-007
Heightened Def Con from 3.76113e-007 +++++++++++++++++to 3.77113e-007
Heightened Def Con from 3.77113e-007 +++++++++++++++++to 3.78113e-007
Heightened Def Con from 3.78113e-007 +++++++++++++++++to 3.79113e-007
Heightened Def Con from 3.79113e-007 +++++++++++++++++to 3.80113e-007
Heightened Def Con from 3.80113e-007 +++++++++++++++++to 3.81113e-007
Heightened Def Con from 3.81113e-007 +++++++++++++++++to 3.82113e-007
Heightened Def Con from 3.82113e-007 +++++++++++++++++to 3.83113e-007
Heightened Def Con from 3.83113e-007 +++++++++++++++++to 3.84113e-007
Heightened Def Con from 3.84113e-007 +++++++++++++++++to 3.85113e-007
Heightened Def Con from 3.85113e-007 +++++++++++++++++to 3.86113e-007
Heightened Def Con from 3.86113e-007 +++++++++++++++++to 3.87113e-007
Heightened Def Con from 3.87113e-007 +++++++++++++++++to 3.88113e-007
Heightened Def Con from 3.88113e-007 +++++++++++++++++to 3.89113e-007
Heightened Def Con from 3.89113e-007 +++++++++++++++++to 3.90113e-007
Heightened Def Con from 3.90113e-007 +++++++++++++++++to 3.91113e-007
Heightened Def Con from 3.91113e-007 +++++++++++++++++to 3.92113e-007
Heightened Def Con from 3.92113e-007 +++++++++++++++++to 3.93113e-007
Heightened Def Con from 3.93113e-007 +++++++++++++++++to 3.94113e-007
Heightened Def Con from 3.94113e-007 +++++++++++++++++to 3.95113e-007
Heightened Def Con from 3.95113e-007 +++++++++++++++++to 3.96113e-007
Heightened Def Con from 3.96113e-007 +++++++++++++++++to 3.97113e-007
Heightened Def Con from 3.97113e-007 +++++++++++++++++to 3.98113e-007
Heightened Def Con from 3.98113e-007 +++++++++++++++++to 3.99113e-007
Heightened Def Con from 3.99113e-007 +++++++++++++++++to 4.00113e-007
Heightened Def Con from 4.00113e-007 +++++++++++++++++to 4.01113e-007
Heightened Def Con from 4.01113e-007 +++++++++++++++++to 4.02113e-007
Heightened Def Con from 4.02113e-007 +++++++++++++++++to 4.03113e-007
Heightened Def Con from 4.03113e-007 +++++++++++++++++to 4.04113e-007
Heightened Def Con from 4.04113e-007 +++++++++++++++++to 4.05113e-007
Heightened Def Con from 4.05113e-007 +++++++++++++++++to 4.06113e-007
Heightened Def Con from 4.06113e-007 +++++++++++++++++to 4.07113e-007
Heightened Def Con from 4.07113e-007 +++++++++++++++++to 4.08113e-007
Heightened Def Con from 4.08113e-007 +++++++++++++++++to 4.09113e-007
Heightened Def Con from 4.09113e-007 +++++++++++++++++to 4.10113e-007
Heightened Def Con from 4.10113e-007 +++++++++++++++++to 4.11113e-007
Heightened Def Con from 4.11113e-007 +++++++++++++++++to 4.12113e-007
Heightened Def Con from 4.12113e-007 +++++++++++++++++to 4.13113e-007
Heightened Def Con from 4.13113e-007 +++++++++++++++++to 4.14113e-007
Heightened Def Con from 4.14113e-007 +++++++++++++++++to 4.15113e-007
Heightened Def Con from 4.15113e-007 +++++++++++++++++to 4.16113e-007
Heightened Def Con from 4.16113e-007 +++++++++++++++++to 4.17113e-007
Heightened Def Con from 4.17113e-007 +++++++++++++++++to 4.18113e-007
Heightened Def Con from 4.18113e-007 +++++++++++++++++to 4.19113e-007
Heightened Def Con from 4.19113e-007 +++++++++++++++++to 4.20113e-007
Heightened Def Con from 4.20113e-007 +++++++++++++++++to 4.21113e-007
Heightened Def Con from 4.21113e-007 +++++++++++++++++to 4.22113e-007
Heightened Def Con from 4.22113e-007 +++++++++++++++++to 4.23113e-007
Heightened Def Con from 4.23113e-007 +++++++++++++++++to 4.24113e-007
Heightened Def Con from 4.24113e-007 +++++++++++++++++to 4.25113e-007
Heightened Def Con from 4.25113e-007 +++++++++++++++++to 4.26113e-007
Heightened Def Con from 4.26113e-007 +++++++++++++++++to 4.27113e-007
Heightened Def Con from 4.27113e-007 +++++++++++++++++to 4.28113e-007
Heightened Def Con from 4.28113e-007 +++++++++++++++++to 4.29113e-007
Heightened Def Con from 4.29113e-007 +++++++++++++++++to 4.30113e-007
Heightened Def Con from 4.30113e-007 +++++++++++++++++to 4.31113e-007
Heightened Def Con from 4.31113e-007 +++++++++++++++++to 4.32113e-007
Heightened Def Con from 4.32113e-007 +++++++++++++++++to 4.33113e-007
Heightened Def Con from 4.33113e-007 +++++++++++++++++to 4.34113e-007
Heightened Def Con from 4.34113e-007 +++++++++++++++++to 4.35113e-007
Heightened Def Con from 4.35113e-007 +++++++++++++++++to 4.36113e-007
Heightened Def Con from 4.36113e-007 +++++++++++++++++to 4.37113e-007
Heightened Def Con from 4.37113e-007 +++++++++++++++++to 4.38113e-007
Heightened Def Con from 4.38113e-007 +++++++++++++++++to 4.39113e-007
Heightened Def Con from 4.39113e-007 +++++++++++++++++to 4.40113e-007
Heightened Def Con from 4.40113e-007 +++++++++++++++++to 4.41113e-007
Heightened Def Con from 4.41113e-007 +++++++++++++++++to 4.42113e-007
Heightened Def Con from 4.42113e-007 +++++++++++++++++to 4.43113e-007
Heightened Def Con from 4.43113e-007 +++++++++++++++++to 4.44113e-007
Heightened Def Con from 4.44113e-007 +++++++++++++++++to 4.45113e-007
Heightened Def Con from 4.45113e-007 +++++++++++++++++to 4.46113e-007
Heightened Def Con from 4.46113e-007 +++++++++++++++++to 4.47113e-007
Heightened Def Con from 4.47113e-007 +++++++++++++++++to 4.48113e-007
Heightened Def Con from 4.48113e-007 +++++++++++++++++to 4.49113e-007
Heightened Def Con from 4.49113e-007 +++++++++++++++++to 4.50113e-007
Heightened Def Con from 4.50113e-007 +++++++++++++++++to 4.51113e-007
Heightened Def Con from 4.51113e-007 +++++++++++++++++to 4.52113e-007
Heightened Def Con from 4.52113e-007 +++++++++++++++++to 4.53113e-007
Heightened Def Con from 4.53113e-007 +++++++++++++++++to 4.54113e-007
Heightened Def Con from 4.54113e-007 +++++++++++++++++to 4.55113e-007
Heightened Def Con from 4.55113e-007 +++++++++++++++++to 4.56113e-007
Heightened Def Con from 4.56113e-007 +++++++++++++++++to 4.57113e-007
Heightened Def Con from 4.57113e-007 +++++++++++++++++to 4.58113e-007
Heightened Def Con from 4.58113e-007 +++++++++++++++++to 4.59113e-007
Heightened Def Con from 4.59113e-007 +++++++++++++++++to 4.60113e-007
Heightened Def Con from 4.60113e-007 +++++++++++++++++to 4.61113e-007
Heightened Def Con from 4.61113e-007 +++++++++++++++++to 4.62113e-007
Heightened Def Con from 4.62113e-007 +++++++++++++++++to 4.63113e-007
Heightened Def Con from 4.63113e-007 +++++++++++++++++to 4.64113e-007
Heightened Def Con from 4.64113e-007 +++++++++++++++++to 4.65113e-007
Heightened Def Con from 4.65113e-007 +++++++++++++++++to 4.66113e-007
Heightened Def Con from 4.66113e-007 +++++++++++++++++to 4.67113e-007
Heightened Def Con from 4.67113e-007 +++++++++++++++++to 4.68113e-007
Heightened Def Con from 4.68113e-007 +++++++++++++++++to 4.69113e-007
Heightened Def Con from 4.69113e-007 +++++++++++++++++to 4.70113e-007
Heightened Def Con from 4.70113e-007 +++++++++++++++++to 4.71113e-007
Heightened Def Con from 4.71113e-007 +++++++++++++++++to 4.72113e-007
Heightened Def Con from 4.72113e-007 +++++++++++++++++to 4.73113e-007
Heightened Def Con from 4.73113e-007 +++++++++++++++++to 4.74113e-007
Heightened Def Con from 4.74113e-007 +++++++++++++++++to 4.75113e-007
Heightened Def Con from 4.75113e-007 +++++++++++++++++to 4.76113e-007
Heightened Def Con from 4.76113e-007 +++++++++++++++++to 4.77113e-007
Heightened Def Con from 4.77113e-007 +++++++++++++++++to 4.78113e-007
Heightened Def Con from 4.78113e-007 +++++++++++++++++to 4.79113e-007
Heightened Def Con from 4.79113e-007 +++++++++++++++++to 4.80113e-007
Heightened Def Con from 4.80113e-007 +++++++++++++++++to 4.81113e-007
Heightened Def Con from 4.81113e-007 +++++++++++++++++to 4.82113e-007
Heightened Def Con from 4.82113e-007 +++++++++++++++++to 4.83113e-007
Heightened Def Con from 4.83113e-007 +++++++++++++++++to 4.84113e-007
Heightened Def Con from 4.84113e-007 +++++++++++++++++to 4.85113e-007
Heightened Def Con from 4.85113e-007 +++++++++++++++++to 4.86113e-007
Heightened Def Con from 4.86113e-007 +++++++++++++++++to 4.87113e-007
Heightened Def Con from 4.87113e-007 +++++++++++++++++to 4.88113e-007
Heightened Def Con from 4.88113e-007 +++++++++++++++++to 4.89113e-007
Heightened Def Con from 4.89113e-007 +++++++++++++++++to 4.90113e-007
Heightened Def Con from 4.90113e-007 +++++++++++++++++to 4.91113e-007
Heightened Def Con from 4.91113e-007 +++++++++++++++++to 4.92113e-007
Heightened Def Con from 4.92113e-007 +++++++++++++++++to 4.93113e-007
Heightened Def Con from 4.93113e-007 +++++++++++++++++to 4.94113e-007
Heightened Def Con from 4.94113e-007 +++++++++++++++++to 4.95113e-007
Heightened Def Con from 4.95113e-007 +++++++++++++++++to 4.96113e-007
Heightened Def Con from 4.96113e-007 +++++++++++++++++to 4.97113e-007
Heightened Def Con from 4.97113e-007 +++++++++++++++++to 4.98113e-007
Heightened Def Con from 4.98113e-007 +++++++++++++++++to 4.99113e-007
Heightened Def Con from 4.99113e-007 +++++++++++++++++to 5.00113e-007
Heightened Def Con from 5.00113e-007 +++++++++++++++++to 5.01113e-007
Heightened Def Con from 5.01113e-007 +++++++++++++++++to 5.02113e-007
Heightened Def Con from 5.02113e-007 +++++++++++++++++to 5.03113e-007
Heightened Def Con from 5.03113e-007 +++++++++++++++++to 5.04113e-007
Heightened Def Con from 5.04113e-007 +++++++++++++++++to 5.05113e-007
Heightened Def Con from 5.05113e-007 +++++++++++++++++to 5.06113e-007
Heightened Def Con from 5.06113e-007 +++++++++++++++++to 5.07113e-007
Heightened Def Con from 5.07113e-007 +++++++++++++++++to 5.08113e-007
Heightened Def Con from 5.08113e-007 +++++++++++++++++to 5.09113e-007
Heightened Def Con from 5.09113e-007 +++++++++++++++++to 5.10113e-007
Heightened Def Con from 5.10113e-007 +++++++++++++++++to 5.11113e-007
Heightened Def Con from 5.11113e-007 +++++++++++++++++to 5.12113e-007
Heightened Def Con from 5.12113e-007 +++++++++++++++++to 5.13113e-007
Heightened Def Con from 5.13113e-007 +++++++++++++++++to 5.14113e-007
Heightened Def Con from 5.14113e-007 +++++++++++++++++to 5.15113e-007
Heightened Def Con from 5.15113e-007 +++++++++++++++++to 5.16113e-007
Heightened Def Con from 5.16113e-007 +++++++++++++++++to 5.17113e-007
Heightened Def Con from 5.17113e-007 +++++++++++++++++to 5.18113e-007
Heightened Def Con from 5.18113e-007 +++++++++++++++++to 5.19113e-007
Heightened Def Con from 5.19113e-007 +++++++++++++++++to 5.20113e-007
Heightened Def Con from 5.20113e-007 +++++++++++++++++to 5.21113e-007
Heightened Def Con from 5.21113e-007 +++++++++++++++++to 5.22113e-007
Heightened Def Con from 5.22113e-007 +++++++++++++++++to 5.23113e-007
Heightened Def Con from 5.23113e-007 +++++++++++++++++to 5.24113e-007
Heightened Def Con from 5.24113e-007 +++++++++++++++++to 5.25113e-007
Heightened Def Con from 5.25113e-007 +++++++++++++++++to 5.26113e-007
Heightened Def Con from 5.26113e-007 +++++++++++++++++to 5.27113e-007
Heightened Def Con from 5.27113e-007 +++++++++++++++++to 5.28113e-007
Heightened Def Con from 5.28113e-007 +++++++++++++++++to 5.29113e-007
Heightened Def Con from 5.29113e-007 +++++++++++++++++to 5.30113e-007
Heightened Def Con from 5.30113e-007 +++++++++++++++++to 5.31113e-007
Heightened Def Con from 5.31113e-007 +++++++++++++++++to 5.32113e-007
Heightened Def Con from 5.32113e-007 +++++++++++++++++to 5.33113e-007
Heightened Def Con from 5.33113e-007 +++++++++++++++++to 5.34113e-007
Heightened Def Con from 5.34113e-007 +++++++++++++++++to 5.35113e-007
Heightened Def Con from 5.35113e-007 +++++++++++++++++to 5.36113e-007
Heightened Def Con from 5.36113e-007 +++++++++++++++++to 5.37113e-007
Heightened Def Con from 5.37113e-007 +++++++++++++++++to 5.38113e-007
Heightened Def Con from 5.38113e-007 +++++++++++++++++to 5.39113e-007
Heightened Def Con from 5.39113e-007 +++++++++++++++++to 5.40113e-007
Heightened Def Con from 5.40113e-007 +++++++++++++++++to 5.41113e-007
Heightened Def Con from 5.41113e-007 +++++++++++++++++to 5.42113e-007
Heightened Def Con from 5.42113e-007 +++++++++++++++++to 5.43113e-007
Heightened Def Con from 5.43113e-007 +++++++++++++++++to 5.44113e-007
Heightened Def Con from 5.44113e-007 +++++++++++++++++to 5.45113e-007
Heightened Def Con from 5.45113e-007 +++++++++++++++++to 5.46113e-007
Heightened Def Con from 5.46113e-007 +++++++++++++++++to 5.47113e-007
Heightened Def Con from 5.47113e-007 +++++++++++++++++to 5.48113e-007
Heightened Def Con from 5.48113e-007 +++++++++++++++++to 5.49113e-007
Heightened Def Con from 5.49113e-007 +++++++++++++++++to 5.50113e-007
Heightened Def Con from 5.50113e-007 +++++++++++++++++to 5.51113e-007
Heightened Def Con from 5.51113e-007 +++++++++++++++++to 5.52113e-007
Heightened Def Con from 5.52113e-007 +++++++++++++++++to 5.53113e-007
Heightened Def Con from 5.53113e-007 +++++++++++++++++to 5.54113e-007
Heightened Def Con from 5.54113e-007 +++++++++++++++++to 5.55113e-007
Heightened Def Con from 5.55113e-007 +++++++++++++++++to 5.56113e-007
Heightened Def Con from 5.56113e-007 +++++++++++++++++to 5.57113e-007
Heightened Def Con from 5.57113e-007 +++++++++++++++++to 5.58113e-007
Heightened Def Con from 5.58113e-007 +++++++++++++++++to 5.59113e-007
Heightened Def Con from 5.59113e-007 +++++++++++++++++to 5.60113e-007
Heightened Def Con from 5.60113e-007 +++++++++++++++++to 5.61113e-007
Heightened Def Con from 5.61113e-007 +++++++++++++++++to 5.62113e-007
Heightened Def Con from 5.62113e-007 +++++++++++++++++to 5.63113e-007
Heightened Def Con from 5.63113e-007 +++++++++++++++++to 5.64113e-007
Heightened Def Con from 5.64113e-007 +++++++++++++++++to 5.65113e-007
Heightened Def Con from 5.65113e-007 +++++++++++++++++to 5.66113e-007
Heightened Def Con from 5.66113e-007 +++++++++++++++++to 5.67113e-007
Heightened Def Con from 5.67113e-007 +++++++++++++++++to 5.68113e-007
Heightened Def Con from 5.68113e-007 +++++++++++++++++to 5.69113e-007
Heightened Def Con from 5.69113e-007 +++++++++++++++++to 5.70113e-007
Heightened Def Con from 5.70113e-007 +++++++++++++++++to 5.71113e-007
Heightened Def Con from 5.71113e-007 +++++++++++++++++to 5.72113e-007
Heightened Def Con from 5.72113e-007 +++++++++++++++++to 5.73113e-007
Heightened Def Con from 5.73113e-007 +++++++++++++++++to 5.74113e-007
Heightened Def Con from 5.74113e-007 +++++++++++++++++to 5.75113e-007
Heightened Def Con from 5.75113e-007 +++++++++++++++++to 5.76113e-007
Heightened Def Con from 5.76113e-007 +++++++++++++++++to 5.77113e-007
Heightened Def Con from 5.77113e-007 +++++++++++++++++to 5.78113e-007
Heightened Def Con from 5.78113e-007 +++++++++++++++++to 5.79113e-007
Heightened Def Con from 5.79113e-007 +++++++++++++++++to 5.80113e-007
Heightened Def Con from 5.80113e-007 +++++++++++++++++to 5.81113e-007
Heightened Def Con from 5.81113e-007 +++++++++++++++++to 5.82113e-007
Heightened Def Con from 5.82113e-007 +++++++++++++++++to 5.83113e-007
Heightened Def Con from 5.83113e-007 +++++++++++++++++to 5.84113e-007
Heightened Def Con from 5.84113e-007 +++++++++++++++++to 5.85113e-007
Heightened Def Con from 5.85113e-007 +++++++++++++++++to 5.86113e-007
Heightened Def Con from 5.86113e-007 +++++++++++++++++to 5.87113e-007
Heightened Def Con from 5.87113e-007 +++++++++++++++++to 5.88113e-007
Heightened Def Con from 5.88113e-007 +++++++++++++++++to 5.89113e-007
Heightened Def Con from 5.89113e-007 +++++++++++++++++to 5.90113e-007
Heightened Def Con from 5.90113e-007 +++++++++++++++++to 5.91113e-007
Heightened Def Con from 5.91113e-007 +++++++++++++++++to 5.92113e-007
Heightened Def Con from 5.92113e-007 +++++++++++++++++to 5.93113e-007
Heightened Def Con from 5.93113e-007 +++++++++++++++++to 5.94113e-007
Heightened Def Con from 5.94113e-007 +++++++++++++++++to 5.95113e-007
Heightened Def Con from 5.95113e-007 +++++++++++++++++to 5.96113e-007
Heightened Def Con from 5.96113e-007 +++++++++++++++++to 5.97113e-007
Heightened Def Con from 5.97113e-007 +++++++++++++++++to 5.98113e-007
Heightened Def Con from 5.98113e-007 +++++++++++++++++to 5.99113e-007
Heightened Def Con from 5.99113e-007 +++++++++++++++++to 6.00113e-007
Heightened Def Con from 6.00113e-007 +++++++++++++++++to 6.01113e-007
Heightened Def Con from 6.01113e-007 +++++++++++++++++to 6.02113e-007
Heightened Def Con from 6.02113e-007 +++++++++++++++++to 6.03113e-007
Heightened Def Con from 6.03113e-007 +++++++++++++++++to 6.04113e-007
Heightened Def Con from 6.04113e-007 +++++++++++++++++to 6.05113e-007
Heightened Def Con from 6.05113e-007 +++++++++++++++++to 6.06113e-007
Heightened Def Con from 6.06113e-007 +++++++++++++++++to 6.07113e-007
Heightened Def Con from 6.07113e-007 +++++++++++++++++to 6.08113e-007
Heightened Def Con from 6.08113e-007 +++++++++++++++++to 6.09113e-007
Heightened Def Con from 6.09113e-007 +++++++++++++++++to 6.10113e-007
Heightened Def Con from 6.10113e-007 +++++++++++++++++to 6.11113e-007
Heightened Def Con from 6.11113e-007 +++++++++++++++++to 6.12113e-007
Heightened Def Con from 6.12113e-007 +++++++++++++++++to 6.13113e-007
Heightened Def Con from 6.13113e-007 +++++++++++++++++to 6.14113e-007
Heightened Def Con from 6.14113e-007 +++++++++++++++++to 6.15113e-007
Heightened Def Con from 6.15113e-007 +++++++++++++++++to 6.16113e-007
Heightened Def Con from 6.16113e-007 +++++++++++++++++to 6.17113e-007
Heightened Def Con from 6.17113e-007 +++++++++++++++++to 6.18113e-007
Heightened Def Con from 6.18113e-007 +++++++++++++++++to 6.19113e-007
Heightened Def Con from 6.19113e-007 +++++++++++++++++to 6.20113e-007
Heightened Def Con from 6.20113e-007 +++++++++++++++++to 6.21113e-007
Heightened Def Con from 6.21113e-007 +++++++++++++++++to 6.22113e-007
Heightened Def Con from 6.22113e-007 +++++++++++++++++to 6.23113e-007
Heightened Def Con from 6.23113e-007 +++++++++++++++++to 6.24113e-007
Heightened Def Con from 6.24113e-007 +++++++++++++++++to 6.25113e-007
Heightened Def Con from 6.25113e-007 +++++++++++++++++to 6.26113e-007
Heightened Def Con from 6.26113e-007 +++++++++++++++++to 6.27113e-007
Heightened Def Con from 6.27113e-007 +++++++++++++++++to 6.28113e-007
Heightened Def Con from 6.28113e-007 +++++++++++++++++to 6.29113e-007
Heightened Def Con from 6.29113e-007 +++++++++++++++++to 6.30113e-007
Heightened Def Con from 6.30113e-007 +++++++++++++++++to 6.31113e-007
Heightened Def Con from 6.31113e-007 +++++++++++++++++to 6.32113e-007
Heightened Def Con from 6.32113e-007 +++++++++++++++++to 6.33113e-007
Heightened Def Con from 6.33113e-007 +++++++++++++++++to 6.34113e-007
Heightened Def Con from 6.34113e-007 +++++++++++++++++to 6.35113e-007
Heightened Def Con from 6.35113e-007 +++++++++++++++++to 6.36113e-007
Heightened Def Con from 6.36113e-007 +++++++++++++++++to 6.37113e-007
Heightened Def Con from 6.37113e-007 +++++++++++++++++to 6.38113e-007
Heightened Def Con from 6.38113e-007 +++++++++++++++++to 6.39113e-007
Heightened Def Con from 6.39113e-007 +++++++++++++++++to 6.40113e-007
Heightened Def Con from 6.40113e-007 +++++++++++++++++to 6.41113e-007
Heightened Def Con from 6.41113e-007 +++++++++++++++++to 6.42113e-007
Heightened Def Con from 6.42113e-007 +++++++++++++++++to 6.43113e-007
Heightened Def Con from 6.43113e-007 +++++++++++++++++to 6.44113e-007
Heightened Def Con from 6.44113e-007 +++++++++++++++++to 6.45113e-007
Heightened Def Con from 6.45113e-007 +++++++++++++++++to 6.46113e-007
Heightened Def Con from 6.46113e-007 +++++++++++++++++to 6.47113e-007
Heightened Def Con from 6.47113e-007 +++++++++++++++++to 6.48113e-007
Heightened Def Con from 6.48113e-007 +++++++++++++++++to 6.49113e-007
Heightened Def Con from 6.49113e-007 +++++++++++++++++to 6.50113e-007
Heightened Def Con from 6.50113e-007 +++++++++++++++++to 6.51113e-007
Heightened Def Con from 6.51113e-007 +++++++++++++++++to 6.52113e-007
Heightened Def Con from 6.52113e-007 +++++++++++++++++to 6.53113e-007
Heightened Def Con from 6.53113e-007 +++++++++++++++++to 6.54113e-007
Heightened Def Con from 6.54113e-007 +++++++++++++++++to 6.55113e-007
Heightened Def Con from 6.55113e-007 +++++++++++++++++to 6.56113e-007
Heightened Def Con from 6.56113e-007 +++++++++++++++++to 6.57113e-007
Heightened Def Con from 6.57113e-007 +++++++++++++++++to 6.58113e-007
Heightened Def Con from 6.58113e-007 +++++++++++++++++to 6.59113e-007
Heightened Def Con from 6.59113e-007 +++++++++++++++++to 6.60113e-007
Heightened Def Con from 6.60113e-007 +++++++++++++++++to 6.61113e-007
Heightened Def Con from 6.61113e-007 +++++++++++++++++to 6.62113e-007
Heightened Def Con from 6.62113e-007 +++++++++++++++++to 6.63113e-007
Heightened Def Con from 6.63113e-007 +++++++++++++++++to 6.64113e-007
Heightened Def Con from 6.64113e-007 +++++++++++++++++to 6.65113e-007
Heightened Def Con from 6.65113e-007 +++++++++++++++++to 6.66113e-007
Heightened Def Con from 6.66113e-007 +++++++++++++++++to 6.67113e-007
Heightened Def Con from 6.67113e-007 +++++++++++++++++to 6.68113e-007
Heightened Def Con from 6.68113e-007 +++++++++++++++++to 6.69113e-007
Heightened Def Con from 6.69113e-007 +++++++++++++++++to 6.70113e-007
Heightened Def Con from 6.70113e-007 +++++++++++++++++to 6.71113e-007
Heightened Def Con from 6.71113e-007 +++++++++++++++++to 6.72113e-007
Heightened Def Con from 6.72113e-007 +++++++++++++++++to 6.73113e-007
Heightened Def Con from 6.73113e-007 +++++++++++++++++to 6.74113e-007
Heightened Def Con from 6.74113e-007 +++++++++++++++++to 6.75113e-007
Heightened Def Con from 6.75113e-007 +++++++++++++++++to 6.76113e-007
Heightened Def Con from 6.76113e-007 +++++++++++++++++to 6.77113e-007
Heightened Def Con from 6.77113e-007 +++++++++++++++++to 6.78113e-007
Heightened Def Con from 6.78113e-007 +++++++++++++++++to 6.79113e-007
Heightened Def Con from 6.79113e-007 +++++++++++++++++to 6.80113e-007
Heightened Def Con from 6.80113e-007 +++++++++++++++++to 6.81113e-007
Heightened Def Con from 6.81113e-007 +++++++++++++++++to 6.82113e-007
Heightened Def Con from 6.82113e-007 +++++++++++++++++to 6.83113e-007
Heightened Def Con from 6.83113e-007 +++++++++++++++++to 6.84113e-007
Heightened Def Con from 6.84113e-007 +++++++++++++++++to 6.85113e-007
Heightened Def Con from 6.85113e-007 +++++++++++++++++to 6.86113e-007
Heightened Def Con from 6.86113e-007 +++++++++++++++++to 6.87113e-007
Heightened Def Con from 6.87113e-007 +++++++++++++++++to 6.88113e-007
Heightened Def Con from 6.88113e-007 +++++++++++++++++to 6.89113e-007
Heightened Def Con from 6.89113e-007 +++++++++++++++++to 6.90113e-007
Heightened Def Con from 6.90113e-007 +++++++++++++++++to 6.91113e-007
Heightened Def Con from 6.91113e-007 +++++++++++++++++to 6.92113e-007
Heightened Def Con from 6.92113e-007 +++++++++++++++++to 6.93113e-007
Heightened Def Con from 6.93113e-007 +++++++++++++++++to 6.94113e-007
Heightened Def Con from 6.94113e-007 +++++++++++++++++to 6.95113e-007
Heightened Def Con from 6.95113e-007 +++++++++++++++++to 6.96113e-007
Heightened Def Con from 6.96113e-007 +++++++++++++++++to 6.97113e-007
Heightened Def Con from 6.97113e-007 +++++++++++++++++to 6.98113e-007
Heightened Def Con from 6.98113e-007 +++++++++++++++++to 6.99113e-007
Heightened Def Con from 6.99113e-007 +++++++++++++++++to 7.00113e-007
Heightened Def Con from 7.00113e-007 +++++++++++++++++to 7.01113e-007
Heightened Def Con from 7.01113e-007 +++++++++++++++++to 7.02113e-007
Heightened Def Con from 7.02113e-007 +++++++++++++++++to 7.03113e-007
Heightened Def Con from 7.03113e-007 +++++++++++++++++to 7.04113e-007
Heightened Def Con from 7.04113e-007 +++++++++++++++++to 7.05113e-007
Heightened Def Con from 7.05113e-007 +++++++++++++++++to 7.06113e-007
Heightened Def Con from 7.06113e-007 +++++++++++++++++to 7.07113e-007
Heightened Def Con from 7.07113e-007 +++++++++++++++++to 7.08113e-007
Heightened Def Con from 7.08113e-007 +++++++++++++++++to 7.09113e-007
Heightened Def Con from 7.09113e-007 +++++++++++++++++to 7.10113e-007
Heightened Def Con from 7.10113e-007 +++++++++++++++++to 7.11113e-007
Heightened Def Con from 7.11113e-007 +++++++++++++++++to 7.12113e-007
Heightened Def Con from 7.12113e-007 +++++++++++++++++to 7.13113e-007
Heightened Def Con from 7.13113e-007 +++++++++++++++++to 7.14113e-007
Heightened Def Con from 7.14113e-007 +++++++++++++++++to 7.15113e-007
Heightened Def Con from 7.15113e-007 +++++++++++++++++to 7.16113e-007
Heightened Def Con from 7.16113e-007 +++++++++++++++++to 7.17113e-007
Heightened Def Con from 7.17113e-007 +++++++++++++++++to 7.18113e-007
Heightened Def Con from 7.18113e-007 +++++++++++++++++to 7.19113e-007
Heightened Def Con from 7.19113e-007 +++++++++++++++++to 7.20113e-007
Heightened Def Con from 7.20113e-007 +++++++++++++++++to 7.21113e-007
Heightened Def Con from 7.21113e-007 +++++++++++++++++to 7.22113e-007
Heightened Def Con from 7.22113e-007 +++++++++++++++++to 7.23113e-007
Heightened Def Con from 7.23113e-007 +++++++++++++++++to 7.24113e-007
Heightened Def Con from 7.24113e-007 +++++++++++++++++to 7.25113e-007
Heightened Def Con from 7.25113e-007 +++++++++++++++++to 7.26113e-007
Heightened Def Con from 7.26113e-007 +++++++++++++++++to 7.27113e-007
Heightened Def Con from 7.27113e-007 +++++++++++++++++to 7.28113e-007
Heightened Def Con from 7.28113e-007 +++++++++++++++++to 7.29113e-007
Heightened Def Con from 7.29113e-007 +++++++++++++++++to 7.30113e-007
Heightened Def Con from 7.30113e-007 +++++++++++++++++to 7.31113e-007
Heightened Def Con from 7.31113e-007 +++++++++++++++++to 7.32113e-007
Heightened Def Con from 7.32113e-007 +++++++++++++++++to 7.33113e-007
Heightened Def Con from 7.33113e-007 +++++++++++++++++to 7.34113e-007
Heightened Def Con from 7.34113e-007 +++++++++++++++++to 7.35113e-007
Heightened Def Con from 7.35113e-007 +++++++++++++++++to 7.36113e-007
Heightened Def Con from 7.36113e-007 +++++++++++++++++to 7.37113e-007
Heightened Def Con from 7.37113e-007 +++++++++++++++++to 7.38113e-007
Heightened Def Con from 7.38113e-007 +++++++++++++++++to 7.39113e-007
Heightened Def Con from 7.39113e-007 +++++++++++++++++to 7.40113e-007
Heightened Def Con from 7.40113e-007 +++++++++++++++++to 7.41113e-007
Heightened Def Con from 7.41113e-007 +++++++++++++++++to 7.42113e-007
Heightened Def Con from 7.42113e-007 +++++++++++++++++to 7.43113e-007
Heightened Def Con from 7.43113e-007 +++++++++++++++++to 7.44113e-007
Heightened Def Con from 7.44113e-007 +++++++++++++++++to 7.45113e-007
Heightened Def Con from 7.45113e-007 +++++++++++++++++to 7.46113e-007
Heightened Def Con from 7.46113e-007 +++++++++++++++++to 7.47113e-007
Heightened Def Con from 7.47113e-007 +++++++++++++++++to 7.48113e-007
Heightened Def Con from 7.48113e-007 +++++++++++++++++to 7.49113e-007
Heightened Def Con from 7.49113e-007 +++++++++++++++++to 7.50113e-007
Heightened Def Con from 7.50113e-007 +++++++++++++++++to 7.51113e-007
Heightened Def Con from 7.51113e-007 +++++++++++++++++to 7.52113e-007
Heightened Def Con from 7.52113e-007 +++++++++++++++++to 7.53113e-007
Heightened Def Con from 7.53113e-007 +++++++++++++++++to 7.54113e-007
Heightened Def Con from 7.54113e-007 +++++++++++++++++to 7.55113e-007
Heightened Def Con from 7.55113e-007 +++++++++++++++++to 7.56113e-007
[...]
Heightened Def Con from 8.39113e-007 +++++++++++++++++to 8.40113e-007
Heightened Def Con from 8.40113e-007 +++++++++++++++++to 8.41113e-007
Heightened Def Con from 8.41113e-007 +++++++++++++++++to 8.42113e-007
Heightened Def Con from 8.42113e-007 +++++++++++++++++to 8.43113e-007
Heightened Def Con from 8.43113e-007 +++++++++++++++++to 8.44113e-007
Heightened Def Con from 8.44113e-007 +++++++++++++++++to 8.45113e-007
Heightened Def Con from 8.45113e-007 +++++++++++++++++to 8.46113e-007
Heightened Def Con from 8.46113e-007 +++++++++++++++++to 8.47113e-007
Heightened Def Con from 8.47113e-007 +++++++++++++++++to 8.48113e-007
Heightened Def Con from 8.48113e-007 +++++++++++++++++to 8.49113e-007
Heightened Def Con from 8.49113e-007 +++++++++++++++++to 8.50113e-007
Heightened Def Con from 8.50113e-007 +++++++++++++++++to 8.51113e-007
Heightened Def Con from 8.51113e-007 +++++++++++++++++to 8.52113e-007
Heightened Def Con from 8.52113e-007 +++++++++++++++++to 8.53113e-007
Heightened Def Con from 8.53113e-007 +++++++++++++++++to 8.54113e-007
Heightened Def Con from 8.54113e-007 +++++++++++++++++to 8.55113e-007
Heightened Def Con from 8.55113e-007 +++++++++++++++++to 8.56113e-007
Heightened Def Con from 8.56113e-007 +++++++++++++++++to 8.57113e-007
Heightened Def Con from 8.57113e-007 +++++++++++++++++to 8.58113e-007
Heightened Def Con from 8.58113e-007 +++++++++++++++++to 8.59113e-007
Heightened Def Con from 8.59113e-007 +++++++++++++++++to 8.60113e-007
Heightened Def Con from 8.60113e-007 +++++++++++++++++to 8.61113e-007
Heightened Def Con from 8.61113e-007 +++++++++++++++++to 8.62113e-007
Heightened Def Con from 8.62113e-007 +++++++++++++++++to 8.63113e-007
Heightened Def Con from 8.63113e-007 +++++++++++++++++to 8.64113e-007
Heightened Def Con from 8.64113e-007 +++++++++++++++++to 8.65113e-007
Heightened Def Con from 8.65113e-007 +++++++++++++++++to 8.66113e-007
Heightened Def Con from 8.66113e-007 +++++++++++++++++to 8.67113e-007
Heightened Def Con from 8.67113e-007 +++++++++++++++++to 8.68113e-007
Heightened Def Con from 8.68113e-007 +++++++++++++++++to 8.69113e-007
Heightened Def Con from 8.69113e-007 +++++++++++++++++to 8.70113e-007
Heightened Def Con from 8.70113e-007 +++++++++++++++++to 8.71113e-007
Heightened Def Con from 8.71113e-007 +++++++++++++++++to 8.72113e-007
Heightened Def Con from 8.72113e-007 +++++++++++++++++to 8.73113e-007
Heightened Def Con from 8.73113e-007 +++++++++++++++++to 8.74113e-007
Heightened Def Con from 8.74113e-007 +++++++++++++++++to 8.75113e-007
Heightened Def Con from 8.75113e-007 +++++++++++++++++to 8.76113e-007
Heightened Def Con from 8.76113e-007 +++++++++++++++++to 8.77113e-007
Heightened Def Con from 8.77113e-007 +++++++++++++++++to 8.78113e-007
Heightened Def Con from 8.78113e-007 +++++++++++++++++to 8.79113e-007
Heightened Def Con from 8.79113e-007 +++++++++++++++++to 8.80113e-007
Heightened Def Con from 8.80113e-007 +++++++++++++++++to 8.81113e-007
Heightened Def Con from 8.81113e-007 +++++++++++++++++to 8.82113e-007
Heightened Def Con from 8.82113e-007 +++++++++++++++++to 8.83113e-007
Heightened Def Con from 8.83113e-007 +++++++++++++++++to 8.84113e-007
Heightened Def Con from 8.84113e-007 +++++++++++++++++to 8.85113e-007
Heightened Def Con from 8.85113e-007 +++++++++++++++++to 8.86113e-007
Heightened Def Con from 8.86113e-007 +++++++++++++++++to 8.87113e-007
Heightened Def Con from 8.87113e-007 +++++++++++++++++to 8.88113e-007
Heightened Def Con from 8.88113e-007 +++++++++++++++++to 8.89113e-007
Heightened Def Con from 8.89113e-007 +++++++++++++++++to 8.90113e-007
Heightened Def Con from 8.90113e-007 +++++++++++++++++to 8.91113e-007
Heightened Def Con from 8.91113e-007 +++++++++++++++++to 8.92113e-007
Heightened Def Con from 8.92113e-007 +++++++++++++++++to 8.93113e-007
Heightened Def Con from 8.93113e-007 +++++++++++++++++to 8.94113e-007
Heightened Def Con from 8.94113e-007 +++++++++++++++++to 8.95113e-007
Heightened Def Con from 8.95113e-007 +++++++++++++++++to 8.96113e-007
Heightened Def Con from 8.96113e-007 +++++++++++++++++to 8.97113e-007
Heightened Def Con from 8.97113e-007 +++++++++++++++++to 8.98113e-007
Heightened Def Con from 8.98113e-007 +++++++++++++++++to 8.99113e-007
Heightened Def Con from 8.99113e-007 +++++++++++++++++to 9.00113e-007
Heightened Def Con from 9.00113e-007 +++++++++++++++++to 9.01113e-007
Heightened Def Con from 9.01113e-007 +++++++++++++++++to 9.02113e-007
Heightened Def Con from 9.02113e-007 +++++++++++++++++to 9.03113e-007
Heightened Def Con from 9.03113e-007 +++++++++++++++++to 9.04113e-007
Heightened Def Con from 9.04113e-007 +++++++++++++++++to 9.05113e-007
Heightened Def Con from 9.05113e-007 +++++++++++++++++to 9.06113e-007
Heightened Def Con from 9.06113e-007 +++++++++++++++++to 9.07113e-007
Heightened Def Con from 9.07113e-007 +++++++++++++++++to 9.08113e-007
Heightened Def Con from 9.08113e-007 +++++++++++++++++to 9.09113e-007
Heightened Def Con from 9.09113e-007 +++++++++++++++++to 9.10113e-007
Heightened Def Con from 9.10113e-007 +++++++++++++++++to 9.11113e-007
Heightened Def Con from 9.11113e-007 +++++++++++++++++to 9.12113e-007
Heightened Def Con from 9.12113e-007 +++++++++++++++++to 9.13113e-007
Heightened Def Con from 9.13113e-007 +++++++++++++++++to 9.14113e-007
Heightened Def Con from 9.14113e-007 +++++++++++++++++to 9.15113e-007
Heightened Def Con from 9.15113e-007 +++++++++++++++++to 9.16113e-007
Heightened Def Con from 9.16113e-007 +++++++++++++++++to 9.17113e-007
Heightened Def Con from 9.17113e-007 +++++++++++++++++to 9.18113e-007
Heightened Def Con from 9.18113e-007 +++++++++++++++++to 9.19113e-007
Heightened Def Con from 9.19113e-007 +++++++++++++++++to 9.20113e-007
Heightened Def Con from 9.20113e-007 +++++++++++++++++to 9.21113e-007
Heightened Def Con from 9.21113e-007 +++++++++++++++++to 9.22113e-007
Heightened Def Con from 9.22113e-007 +++++++++++++++++to 9.23113e-007
Heightened Def Con from 9.23113e-007 +++++++++++++++++to 9.24113e-007
Heightened Def Con from 9.24113e-007 +++++++++++++++++to 9.25113e-007
Heightened Def Con from 9.25113e-007 +++++++++++++++++to 9.26113e-007
Heightened Def Con from 9.26113e-007 +++++++++++++++++to 9.27113e-007
Heightened Def Con from 9.27113e-007 +++++++++++++++++to 9.28113e-007
Heightened Def Con from 9.28113e-007 +++++++++++++++++to 9.29113e-007
Heightened Def Con from 9.29113e-007 +++++++++++++++++to 9.30113e-007
Heightened Def Con from 9.30113e-007 +++++++++++++++++to 9.31113e-007
Heightened Def Con from 9.31113e-007 +++++++++++++++++to 9.32113e-007
Heightened Def Con from 9.32113e-007 +++++++++++++++++to 9.33113e-007
Heightened Def Con from 9.33113e-007 +++++++++++++++++to 9.34113e-007
Heightened Def Con from 9.34113e-007 +++++++++++++++++to 9.35113e-007
Heightened Def Con from 9.35113e-007 +++++++++++++++++to 9.36113e-007
Heightened Def Con from 9.36113e-007 +++++++++++++++++to 9.37113e-007
Heightened Def Con from 9.37113e-007 +++++++++++++++++to 9.38113e-007
Heightened Def Con from 9.38113e-007 +++++++++++++++++to 9.39113e-007
Heightened Def Con from 9.39113e-007 +++++++++++++++++to 9.40113e-007
Heightened Def Con from 9.40113e-007 +++++++++++++++++to 9.41113e-007
Heightened Def Con from 9.41113e-007 +++++++++++++++++to 9.42113e-007
Heightened Def Con from 9.42113e-007 +++++++++++++++++to 9.43113e-007
Heightened Def Con from 9.43113e-007 +++++++++++++++++to 9.44113e-007
Heightened Def Con from 9.44113e-007 +++++++++++++++++to 9.45113e-007
Heightened Def Con from 9.45113e-007 +++++++++++++++++to 9.46113e-007
Heightened Def Con from 9.46113e-007 +++++++++++++++++to 9.47113e-007
Heightened Def Con from 9.47113e-007 +++++++++++++++++to 9.48113e-007
Heightened Def Con from 9.48113e-007 +++++++++++++++++to 9.49113e-007
Heightened Def Con from 9.49113e-007 +++++++++++++++++to 9.50113e-007
Heightened Def Con from 9.50113e-007 +++++++++++++++++to 9.51113e-007
Heightened Def Con from 9.51113e-007 +++++++++++++++++to 9.52113e-007
Heightened Def Con from 9.52113e-007 +++++++++++++++++to 9.53113e-007
Heightened Def Con from 9.53113e-007 +++++++++++++++++to 9.54113e-007
Heightened Def Con from 9.54113e-007 +++++++++++++++++to 9.55113e-007
Heightened Def Con from 9.55113e-007 +++++++++++++++++to 9.56113e-007
Heightened Def Con from 9.56113e-007 +++++++++++++++++to 9.57113e-007
Heightened Def Con from 9.57113e-007 +++++++++++++++++to 9.58113e-007
Heightened Def Con from 9.58113e-007 +++++++++++++++++to 9.59113e-007
Heightened Def Con from 9.59113e-007 +++++++++++++++++to 9.60113e-007
Heightened Def Con from 9.60113e-007 +++++++++++++++++to 9.61113e-007
Heightened Def Con from 9.61113e-007 +++++++++++++++++to 9.62113e-007
Heightened Def Con from 9.62113e-007 +++++++++++++++++to 9.63113e-007
Heightened Def Con from 9.63113e-007 +++++++++++++++++to 9.64113e-007
Heightened Def Con from 9.64113e-007 +++++++++++++++++to 9.65113e-007
Heightened Def Con from 9.65113e-007 +++++++++++++++++to 9.66113e-007
Heightened Def Con from 9.66113e-007 +++++++++++++++++to 9.67113e-007
Heightened Def Con from 9.67113e-007 +++++++++++++++++to 9.68113e-007
Heightened Def Con from 9.68113e-007 +++++++++++++++++to 9.69113e-007
Heightened Def Con from 9.69113e-007 +++++++++++++++++to 9.70113e-007
Heightened Def Con from 9.70113e-007 +++++++++++++++++to 9.71113e-007
Heightened Def Con from 9.71113e-007 +++++++++++++++++to 9.72113e-007
Heightened Def Con from 9.72113e-007 +++++++++++++++++to 9.73113e-007
Heightened Def Con from 9.73113e-007 +++++++++++++++++to 9.74113e-007
Heightened Def Con from 9.74113e-007 +++++++++++++++++to 9.75113e-007
Heightened Def Con from 9.75113e-007 +++++++++++++++++to 9.76113e-007
Heightened Def Con from 9.76113e-007 +++++++++++++++++to 9.77113e-007
Heightened Def Con from 9.77113e-007 +++++++++++++++++to 9.78113e-007
Heightened Def Con from 9.78113e-007 +++++++++++++++++to 9.79113e-007
Heightened Def Con from 9.79113e-007 +++++++++++++++++to 9.80113e-007
Heightened Def Con from 9.80113e-007 +++++++++++++++++to 9.81113e-007
Heightened Def Con from 9.81113e-007 +++++++++++++++++to 9.82113e-007
Heightened Def Con from 9.82113e-007 +++++++++++++++++to 9.83113e-007
Heightened Def Con from 9.83113e-007 +++++++++++++++++to 9.84113e-007
Heightened Def Con from 9.84113e-007 +++++++++++++++++to 9.85113e-007
Heightened Def Con from 9.85113e-007 +++++++++++++++++to 9.86113e-007
Heightened Def Con from 9.86113e-007 +++++++++++++++++to 9.87113e-007
Heightened Def Con from 9.87113e-007 +++++++++++++++++to 9.88113e-007
Heightened Def Con from 9.88113e-007 +++++++++++++++++to 9.89113e-007
Heightened Def Con from 9.89113e-007 +++++++++++++++++to 9.90113e-007
Heightened Def Con from 9.90113e-007 +++++++++++++++++to 9.91113e-007
Heightened Def Con from 9.91113e-007 +++++++++++++++++to 9.92113e-007
Heightened Def Con from 9.92113e-007 +++++++++++++++++to 9.93113e-007
Heightened Def Con from 9.93113e-007 +++++++++++++++++to 9.94113e-007
Heightened Def Con from 9.94113e-007 +++++++++++++++++to 9.95113e-007
Heightened Def Con from 9.95113e-007 +++++++++++++++++to 9.96113e-007
Heightened Def Con from 9.96113e-007 +++++++++++++++++to 9.97113e-007
Heightened Def Con from 9.97113e-007 +++++++++++++++++to 9.98113e-007
Heightened Def Con from 9.98113e-007 +++++++++++++++++to 9.99113e-007
Heightened Def Con from 9.99113e-007 +++++++++++++++++to 1.00011e-006
Heightened Def Con from 1.00011e-006 +++++++++++++++++to 1.00111e-006
Heightened Def Con from 1.00111e-006 +++++++++++++++++to 1.00211e-006
Heightened Def Con from 1.00211e-006 +++++++++++++++++to 1.00311e-006
Heightened Def Con from 1.00311e-006 +++++++++++++++++to 1.00411e-006
Heightened Def Con from 1.00411e-006 +++++++++++++++++to 1.00511e-006
Heightened Def Con from 1.00511e-006 +++++++++++++++++to 1.00611e-006
Heightened Def Con from 1.00611e-006 +++++++++++++++++to 1.00711e-006
Heightened Def Con from 1.00711e-006 +++++++++++++++++to 1.00811e-006
Heightened Def Con from 1.00811e-006 +++++++++++++++++to 1.00911e-006
Heightened Def Con from 1.00911e-006 +++++++++++++++++to 1.01011e-006
Heightened Def Con from 1.01011e-006 +++++++++++++++++to 1.01111e-006
Heightened Def Con from 1.01111e-006 +++++++++++++++++to 1.01211e-006
Heightened Def Con from 1.01211e-006 +++++++++++++++++to 1.01311e-006
Heightened Def Con from 1.01311e-006 +++++++++++++++++to 1.01411e-006
Heightened Def Con from 1.01411e-006 +++++++++++++++++to 1.01511e-006
Heightened Def Con from 1.01511e-006 +++++++++++++++++to 1.01611e-006
Heightened Def Con from 1.01611e-006 +++++++++++++++++to 1.01711e-006
Heightened Def Con from 1.01711e-006 +++++++++++++++++to 1.01811e-006
Heightened Def Con from 1.01811e-006 +++++++++++++++++to 1.01911e-006
Heightened Def Con from 1.01911e-006 +++++++++++++++++to 1.02011e-006
Heightened Def Con from 1.02011e-006 +++++++++++++++++to 1.02111e-006
Heightened Def Con from 1.02111e-006 +++++++++++++++++to 1.02211e-006
Heightened Def Con from 1.02211e-006 +++++++++++++++++to 1.02311e-006
Heightened Def Con from 1.02311e-006 +++++++++++++++++to 1.02411e-006
Heightened Def Con from 1.02411e-006 +++++++++++++++++to 1.02511e-006
Heightened Def Con from 1.02511e-006 +++++++++++++++++to 1.02611e-006
Heightened Def Con from 1.02611e-006 +++++++++++++++++to 1.02711e-006
Heightened Def Con from 1.02711e-006 +++++++++++++++++to 1.02811e-006
Heightened Def Con from 1.02811e-006 +++++++++++++++++to 1.02911e-006
Heightened Def Con from 1.02911e-006 +++++++++++++++++to 1.03011e-006
Heightened Def Con from 1.03011e-006 +++++++++++++++++to 1.03111e-006
Heightened Def Con from 1.03111e-006 +++++++++++++++++to 1.03211e-006
Heightened Def Con from 1.03211e-006 +++++++++++++++++to 1.03311e-006
Heightened Def Con from 1.03311e-006 +++++++++++++++++to 1.03411e-006
Heightened Def Con from 1.03411e-006 +++++++++++++++++to 1.03511e-006
Heightened Def Con from 1.03511e-006 +++++++++++++++++to 1.03611e-006
Heightened Def Con from 1.03611e-006 +++++++++++++++++to 1.03711e-006
Heightened Def Con from 1.03711e-006 +++++++++++++++++to 1.03811e-006
Heightened Def Con from 1.03811e-006 +++++++++++++++++to 1.03911e-006
Heightened Def Con from 1.03911e-006 +++++++++++++++++to 1.04011e-006
Heightened Def Con from 1.04011e-006 +++++++++++++++++to 1.04111e-006
Heightened Def Con from 1.04111e-006 +++++++++++++++++to 1.04211e-006
Heightened Def Con from 1.04211e-006 +++++++++++++++++to 1.04311e-006
Heightened Def Con from 1.04311e-006 +++++++++++++++++to 1.04411e-006
Heightened Def Con from 1.04411e-006 +++++++++++++++++to 1.04511e-006
Heightened Def Con from 1.04511e-006 +++++++++++++++++to 1.04611e-006
Heightened Def Con from 1.04611e-006 +++++++++++++++++to 1.04711e-006
Heightened Def Con from 1.04711e-006 +++++++++++++++++to 1.04811e-006
Heightened Def Con from 1.04811e-006 +++++++++++++++++to 1.04911e-006
Heightened Def Con from 1.04911e-006 +++++++++++++++++to 1.05011e-006
Heightened Def Con from 1.05011e-006 +++++++++++++++++to 1.05111e-006
Heightened Def Con from 1.05111e-006 +++++++++++++++++to 1.05211e-006
Heightened Def Con from 1.05211e-006 +++++++++++++++++to 1.05311e-006
Heightened Def Con from 1.05311e-006 +++++++++++++++++to 1.05411e-006
Heightened Def Con from 1.05411e-006 +++++++++++++++++to 1.05511e-006
Heightened Def Con from 1.05511e-006 +++++++++++++++++to 1.05611e-006
Heightened Def Con from 1.05611e-006 +++++++++++++++++to 1.05711e-006
Heightened Def Con from 1.05711e-006 +++++++++++++++++to 1.05811e-006
Heightened Def Con from 1.05811e-006 +++++++++++++++++to 1.05911e-006
Heightened Def Con from 1.05911e-006 +++++++++++++++++to 1.06011e-006
Heightened Def Con from 1.06011e-006 +++++++++++++++++to 1.06111e-006
Heightened Def Con from 1.06111e-006 +++++++++++++++++to 1.06211e-006
Heightened Def Con from 1.06211e-006 +++++++++++++++++to 1.06311e-006
Heightened Def Con from 1.06311e-006 +++++++++++++++++to 1.06411e-006
Heightened Def Con from 1.06411e-006 +++++++++++++++++to 1.06511e-006
Heightened Def Con from 1.06511e-006 +++++++++++++++++to 1.06611e-006
Heightened Def Con from 1.06611e-006 +++++++++++++++++to 1.06711e-006
Heightened Def Con from 1.06711e-006 +++++++++++++++++to 1.06811e-006
Heightened Def Con from 1.06811e-006 +++++++++++++++++to 1.06911e-006
Heightened Def Con from 1.06911e-006 +++++++++++++++++to 1.07011e-006
Heightened Def Con from 1.07011e-006 +++++++++++++++++to 1.07111e-006
Heightened Def Con from 1.07111e-006 +++++++++++++++++to 1.07211e-006
Heightened Def Con from 1.07211e-006 +++++++++++++++++to 1.07311e-006
Heightened Def Con from 1.07311e-006 +++++++++++++++++to 1.07411e-006
Heightened Def Con from 1.07411e-006 +++++++++++++++++to 1.07511e-006
Heightened Def Con from 1.07511e-006 +++++++++++++++++to 1.07611e-006
Heightened Def Con from 1.07611e-006 +++++++++++++++++to 1.07711e-006
Heightened Def Con from 1.07711e-006 +++++++++++++++++to 1.07811e-006
Heightened Def Con from 1.07811e-006 +++++++++++++++++to 1.07911e-006
Heightened Def Con from 1.07911e-006 +++++++++++++++++to 1.08011e-006
Heightened Def Con from 1.08011e-006 +++++++++++++++++to 1.08111e-006
Heightened Def Con from 1.08111e-006 +++++++++++++++++to 1.08211e-006
Heightened Def Con from 1.08211e-006 +++++++++++++++++to 1.08311e-006
Heightened Def Con from 1.08311e-006 +++++++++++++++++to 1.08411e-006
Heightened Def Con from 1.08411e-006 +++++++++++++++++to 1.08511e-006
Heightened Def Con from 1.08511e-006 +++++++++++++++++to 1.08611e-006
Heightened Def Con from 1.08611e-006 +++++++++++++++++to 1.08711e-006
Heightened Def Con from 1.08711e-006 +++++++++++++++++to 1.08811e-006
Heightened Def Con from 1.08811e-006 +++++++++++++++++to 1.08911e-006
Heightened Def Con from 1.08911e-006 +++++++++++++++++to 1.09011e-006
Heightened Def Con from 1.09011e-006 +++++++++++++++++to 1.09111e-006
Heightened Def Con from 1.09111e-006 +++++++++++++++++to 1.09211e-006
Heightened Def Con from 1.09211e-006 +++++++++++++++++to 1.09311e-006
Heightened Def Con from 1.09311e-006 +++++++++++++++++to 1.09411e-006
Heightened Def Con from 1.09411e-006 +++++++++++++++++to 1.09511e-006
Heightened Def Con from 1.09511e-006 +++++++++++++++++to 1.09611e-006
Heightened Def Con from 1.09611e-006 +++++++++++++++++to 1.09711e-006
Heightened Def Con from 1.09711e-006 +++++++++++++++++to 1.09811e-006
Heightened Def Con from 1.09811e-006 +++++++++++++++++to 1.09911e-006
Heightened Def Con from 1.09911e-006 +++++++++++++++++to 1.10011e-006
Heightened Def Con from 1.10011e-006 +++++++++++++++++to 1.10111e-006
Heightened Def Con from 1.10111e-006 +++++++++++++++++to 1.10211e-006
Heightened Def Con from 1.10211e-006 +++++++++++++++++to 1.10311e-006
Heightened Def Con from 1.10311e-006 +++++++++++++++++to 1.10411e-006
Heightened Def Con from 1.10411e-006 +++++++++++++++++to 1.10511e-006
Heightened Def Con from 1.10511e-006 +++++++++++++++++to 1.10611e-006
Heightened Def Con from 1.10611e-006 +++++++++++++++++to 1.10711e-006
Heightened Def Con from 1.10711e-006 +++++++++++++++++to 1.10811e-006
Heightened Def Con from 1.10811e-006 +++++++++++++++++to 1.10911e-006
Heightened Def Con from 1.10911e-006 +++++++++++++++++to 1.11011e-006
Heightened Def Con from 1.11011e-006 +++++++++++++++++to 1.11111e-006
Heightened Def Con from 1.11111e-006 +++++++++++++++++to 1.11211e-006
Heightened Def Con from 1.11211e-006 +++++++++++++++++to 1.11311e-006
Heightened Def Con from 1.11311e-006 +++++++++++++++++to 1.11411e-006
Heightened Def Con from 1.11411e-006 +++++++++++++++++to 1.11511e-006
Heightened Def Con from 1.11511e-006 +++++++++++++++++to 1.11611e-006
Heightened Def Con from 1.11611e-006 +++++++++++++++++to 1.11711e-006
Heightened Def Con from 1.11711e-006 +++++++++to 1.11711e-006

Date: Mon Feb 12 14:29:32 2018
Total elapsed time: 714.996 seconds.

tnom = 27
temp = 27
method = modified trap
totiter = 2451830
traniter = 2451434
tranpoints = 223783
accept = 21254
rejected = 222447
matrix size = 146
fillins = 136
solver = Normal
Thread vector: 41.7/26.5[8] 36.7/22.6[8] 9.6/6.1[8] 1.1/2.2[1]  2592/500
Matrix Compiler1: 20.38 KB object code size  6.2/2.8/[1.8]
Matrix Compiler2:    1432 opcodes  3.4/[2.8]/3.0

