Circuit: * Z:\home\luke\Backup\info\projects\transistorComputer\CMOS\Ring_Occ[1].asc

Warning: Pd = 0 is less than W.
Warning: Ps = 0 is less than W.
Warning: Pd = 0 is less than W.
Warning: Ps = 0 is less than W.
Warning: Pd = 0 is less than W.
Warning: Ps = 0 is less than W.
Direct Newton iteration for .op point succeeded.

Date: Thu Feb 15 09:46:38 2018
Total elapsed time: 0.071 seconds.

tnom = 27
temp = 27
method = modified trap
totiter = 2142
traniter = 2135
tranpoints = 1065
accept = 1059
rejected = 6
matrix size = 6
fillins = 0
solver = Normal
Matrix Compiler1: 164 bytes object code size  0.6/0.6/[0.6]
Matrix Compiler2: 374 bytes object code size  0.6/0.6/[0.6]


