Circuit: * D:\transistorComputer\CMOS\Ring_Occ[3].asc

Warning: Pd = 0 is less than W.
Warning: Ps = 0 is less than W.
Warning: Pd = 0 is less than W.
Warning: Ps = 0 is less than W.
Warning: Pd = 0 is less than W.
Warning: Ps = 0 is less than W.
Warning: Pd = 0 is less than W.
Warning: Ps = 0 is less than W.
Warning: Pd = 0 is less than W.
Warning: Ps = 0 is less than W.
Warning: Pd = 0 is less than W.
Warning: Ps = 0 is less than W.
Warning: Pd = 0 is less than W.
Warning: Ps = 0 is less than W.
Warning: Pd = 0 is less than W.
Warning: Ps = 0 is less than W.
Warning: Pd = 0 is less than W.
Warning: Ps = 0 is less than W.
Direct Newton iteration for .op point succeeded.

Date: Sat Feb 17 10:21:18 2018
Total elapsed time: 0.447 seconds.

tnom = 27
temp = 27
method = modified trap
totiter = 42885
traniter = 42878
tranpoints = 16614
accept = 11066
rejected = 5548
matrix size = 10
fillins = 0
solver = Normal
Matrix Compiler1: 738 bytes object code size  0.1/0.1/[0.1]
Matrix Compiler2: 944 bytes object code size  0.1/0.1/[0.1]

