Circuit: * D:\transistorComputer\CMOS\Ring_Occ[1].asc

Warning: Pd = 0 is less than W.
Warning: Ps = 0 is less than W.
Warning: Pd = 0 is less than W.
Warning: Ps = 0 is less than W.
Direct Newton iteration for .op point succeeded.
Changing Tseed to 6.25e-009
Changing Tseed to 6.25e-011

Date: Sat Feb 10 18:54:11 2018
Total elapsed time: 0.087 seconds.

tnom = 27
temp = 27
method = modified trap
totiter = 2220
traniter = 2212
tranpoints = 1082
accept = 1079
rejected = 1
matrix size = 5
fillins = 0
solver = Normal
Matrix Compiler1:       9 opcodes  0.5/[0.0]/0.0
Matrix Compiler2:      27 opcodes  0.1/[0.1]/0.1

