Circuit: * D:\transistorComputer\CMOS\Test_NOT.asc

WARNING: Less than two connections to node B.  This node is used by VB.
WARNING: Less than two connections to node C.  This node is used by VC.
WARNING: Less than two connections to node D.  This node is used by VD.
Warning: Pd = 0 is less than W.
Warning: Ps = 0 is less than W.
Warning: Pd = 0 is less than W.
Warning: Ps = 0 is less than W.
Direct Newton iteration for .op point succeeded.

Date: Sat Feb 03 12:21:06 2018
Total elapsed time: 0.168 seconds.

tnom = 27
temp = 27
method = modified trap
totiter = 6641
traniter = 6627
tranpoints = 3045
accept = 2668
rejected = 377
matrix size = 11
fillins = 0
solver = Normal
Matrix Compiler1: 216 bytes object code size  0.1/0.0/[0.0]
Matrix Compiler2:      52 opcodes  0.1/[0.1]/0.1

