Circuit: * D:\transistorComputer\CMOS\Test_Counter_NS.asc

WARNING: Less than two connections to node CLK.  This node is used by VCLK.
WARNING: Less than two connections to node A[3].  This node is used by VA3.
WARNING: Less than two connections to node B[0].  This node is used by VB0.
WARNING: Less than two connections to node B[1].  This node is used by VB1.
WARNING: Less than two connections to node B[2].  This node is used by VB2.
WARNING: Less than two connections to node B[3].  This node is used by VB3.
Warning: Pd = 0 is less than W.
Warning: Ps = 0 is less than W.
Warning: Pd = 0 is less than W.
Warning: Ps = 0 is less than W.
Warning: Pd = 0 is less than W.
Warning: Ps = 0 is less than W.
Warning: Pd = 0 is less than W.
Warning: Ps = 0 is less than W.
Warning: Pd = 0 is less than W.
Warning: Ps = 0 is less than W.
Warning: Pd = 0 is less than W.
Warning: Ps = 0 is less than W.
Warning: Pd = 0 is less than W.
Warning: Ps = 0 is less than W.
Warning: Pd = 0 is less than W.
Warning: Ps = 0 is less than W.
Warning: Pd = 0 is less than W.
Warning: Ps = 0 is less than W.
Warning: Pd = 0 is less than W.
Warning: Ps = 0 is less than W.
Warning: Pd = 0 is less than W.
Warning: Ps = 0 is less than W.
Warning: Pd = 0 is less than W.
Warning: Ps = 0 is less than W.
Warning: Pd = 0 is less than W.
Warning: Ps = 0 is less than W.
Warning: Pd = 0 is less than W.
Warning: Ps = 0 is less than W.
Warning: Pd = 0 is less than W.
Warning: Ps = 0 is less than W.
Warning: Pd = 0 is less than W.
Warning: Ps = 0 is less than W.
Warning: Pd = 0 is less than W.
Warning: Ps = 0 is less than W.
Warning: Pd = 0 is less than W.
Warning: Ps = 0 is less than W.
Warning: Pd = 0 is less than W.
Warning: Ps = 0 is less than W.
Warning: Pd = 0 is less than W.
Warning: Ps = 0 is less than W.
Warning: Pd = 0 is less than W.
Warning: Ps = 0 is less than W.
Warning: Pd = 0 is less than W.
Warning: Ps = 0 is less than W.
Warning: Pd = 0 is less than W.
Warning: Ps = 0 is less than W.
Warning: Pd = 0 is less than W.
Warning: Ps = 0 is less than W.
Direct Newton iteration for .op point succeeded.
Heightened Def Con from 0.00100003 to 0.00100003
Heightened Def Con from 0.00300003 to 0.00300003
Heightened Def Con from 0.00300003 to 0.00300004
Heightened Def Con from 0.00500003 to 0.00500003
Heightened Def Con from 0.00700003 to 0.00700003
Heightened Def Con from 0.00700003 to 0.00700004
Heightened Def Con from 0.00700135 +++++++++++++to 0.00700135
Heightened Def Con from 0.00900003 to 0.00900003
Heightened Def Con from 0.011 to 0.011
Heightened Def Con from 0.011 to 0.011
Heightened Def Con from 0.013 to 0.013
Heightened Def Con from 0.015 to 0.015
Heightened Def Con from 0.015 to 0.015
Heightened Def Con from 0.0150013 +++++++++++++to 0.0150013

Date: Sat Feb 17 14:18:16 2018
Total elapsed time: 0.586 seconds.

tnom = 27
temp = 27
method = modified trap
totiter = 21630
traniter = 21615
tranpoints = 6472
accept = 4856
rejected = 1656
matrix size = 42
fillins = 2
solver = Normal
Thread vector: 36.4/18.3[4] 6.6/3.5[4] 1.8/1.3[4] 0.8/0.7[2]  2592/500
Matrix Compiler1: 2.98 KB object code size  0.7/0.4/[0.2]
Matrix Compiler2: 3.93 KB object code size  0.4/0.6/[0.4]

