Circuit: * Z:\home\luke\Backup\info\projects\transistorComputer\CMOS\Test_NAND.asc

WARNING: Less than two connections to node C.  This node is used by VC.
WARNING: Less than two connections to node D.  This node is used by VD.
Warning: Pd = 0 is less than W.
Warning: Ps = 0 is less than W.
Warning: Pd = 0 is less than W.
Warning: Ps = 0 is less than W.
Direct Newton iteration for .op point succeeded.

Date: Sat Jan 27 11:10:38 2018
Total elapsed time: 0.134 seconds.

tnom = 27
temp = 27
method = modified trap
totiter = 7611
traniter = 7597
tranpoints = 3331
accept = 2865
rejected = 466
matrix size = 12
fillins = 0
solver = Normal
Matrix Compiler1: 356 bytes object code size  0.6/0.5/[0.5]
Matrix Compiler2: 792 bytes object code size  0.5/0.7/[0.6]


