Circuit: * C:\Users\john\Downloads\Bill(Gates)\CMOS\Test_XOR.asc

WARNING: Less than two connections to node C.  This node is used by VC.
WARNING: Less than two connections to node D.  This node is used by VD.
Warning: Pd = 0 is less than W.
Warning: Ps = 0 is less than W.
Warning: Pd = 0 is less than W.
Warning: Ps = 0 is less than W.
Warning: Pd = 0 is less than W.
Warning: Ps = 0 is less than W.
Warning: Pd = 0 is less than W.
Warning: Ps = 0 is less than W.
Warning: Pd = 0 is less than W.
Warning: Ps = 0 is less than W.
Warning: Pd = 0 is less than W.
Warning: Ps = 0 is less than W.
Direct Newton iteration for .op point succeeded.

Date: Wed Jan 24 14:47:57 2018
Total elapsed time: 0.145 seconds.

tnom = 27
temp = 27
method = modified trap
totiter = 8377
traniter = 8362
tranpoints = 3560
accept = 3015
rejected = 545
matrix size = 16
fillins = 0
solver = Normal
Matrix Compiler1: 966 bytes object code size  0.2/0.1/[0.0]
Matrix Compiler2: off  [0.1]/0.2/0.6

