Circuit: * D:\transistorComputer\CMOS\Test_NAND_DFF.asc

WARNING: Less than two connections to node C.  This node is used by VC.
WARNING: Less than two connections to node D.  This node is used by VD.
Warning: Pd = 0 is less than W.
Warning: Ps = 0 is less than W.
Warning: Pd = 0 is less than W.
Warning: Ps = 0 is less than W.
Direct Newton iteration for .op point succeeded.

Date: Sat Feb 17 11:08:06 2018
Total elapsed time: 0.130 seconds.

tnom = 27
temp = 27
method = modified trap
totiter = 9637
traniter = 9627
tranpoints = 4028
accept = 3446
rejected = 582
matrix size = 12
fillins = 0
solver = Normal
Matrix Compiler1:      22 opcodes  0.1/[0.0]/0.1
Matrix Compiler2: 792 bytes object code size  0.1/0.1/[0.1]

