Circuit: * D:\transistorComputer\CMOS\Test_Delay.asc

WARNING: Less than two connections to node B.  This node is used by VB.
WARNING: Less than two connections to node C.  This node is used by VC.
WARNING: Less than two connections to node D.  This node is used by VD.
Warning: Pd = 0 is less than W.
Warning: Ps = 0 is less than W.
Warning: Pd = 0 is less than W.
Warning: Ps = 0 is less than W.
Direct Newton iteration for .op point succeeded.
Heightened Def Con from 0.00201814 to 0.00201814
Heightened Def Con from 0.00401814 to 0.00401814
Heightened Def Con from 0.00601814 to 0.00601814
Heightened Def Con from 0.00801842 to 0.00801842
Heightened Def Con from 0.0140182 to 0.0140182

Date: Mon Feb 19 12:43:54 2018
Total elapsed time: 0.147 seconds.

tnom = 27
temp = 27
method = modified trap
totiter = 11828
traniter = 11821
tranpoints = 4318
accept = 3556
rejected = 767
matrix size = 12
fillins = 0
solver = Normal
Matrix Compiler1:      16 opcodes  0.1/[0.0]/0.1
Matrix Compiler2: 688 bytes object code size  0.1/0.1/[0.0]

