Circuit: * Z:\home\luke\Backup\info\projects\transistorComputer\CMOS\Test_NOT.asc

WARNING: Less than two connections to node B.  This node is used by VB.
WARNING: Less than two connections to node C.  This node is used by VC.
WARNING: Less than two connections to node D.  This node is used by VD.
Warning: Pd = 0 is less than W.
Warning: Ps = 0 is less than W.
Warning: Pd = 0 is less than W.
Warning: Ps = 0 is less than W.
Direct Newton iteration for .op point succeeded.

Date: Sat Jan 27 11:13:17 2018
Total elapsed time: 0.103 seconds.

tnom = 27
temp = 27
method = modified trap
totiter = 6677
traniter = 6663
tranpoints = 3063
accept = 2674
rejected = 389
matrix size = 11
fillins = 0
solver = Normal
Matrix Compiler1: 216 bytes object code size  0.5/0.5/[0.4]
Matrix Compiler2: 569 bytes object code size  0.5/0.5/[0.5]


