Circuit: * D:\transistorComputer\CMOS\Test_NAND_PARAM.asc

WARNING: Less than two connections to node C.  This node is used by VC.
WARNING: Less than two connections to node D.  This node is used by VD.
Warning: Pd = 0 is less than W.
Warning: Ps = 0 is less than W.
Warning: Pd = 0 is less than W.
Warning: Ps = 0 is less than W.
Direct Newton iteration for .op point succeeded.

Date: Sat Feb 17 13:15:09 2018
Total elapsed time: 0.143 seconds.

tnom = 27
temp = 27
method = modified trap
totiter = 9801
traniter = 9795
tranpoints = 3752
accept = 3182
rejected = 570
matrix size = 12
fillins = 0
solver = Normal
Matrix Compiler1: 356 bytes object code size  0.1/0.1/[0.0]
Matrix Compiler2: 792 bytes object code size  0.1/0.1/[0.0]

