Circuit: * D:\transistorComputer\CMOS\Test_DFF.asc

WARNING: Less than two connections to node A.  This node is used by VA.
WARNING: Less than two connections to node C.  This node is used by VC.
Warning: Pd = 0 is less than W.
Warning: Ps = 0 is less than W.
Warning: Pd = 0 is less than W.
Warning: Ps = 0 is less than W.
Warning: Pd = 0 is less than W.
Warning: Ps = 0 is less than W.
Warning: Pd = 0 is less than W.
Warning: Ps = 0 is less than W.
Warning: Pd = 0 is less than W.
Warning: Ps = 0 is less than W.
Warning: Pd = 0 is less than W.
Warning: Ps = 0 is less than W.
Warning: Pd = 0 is less than W.
Warning: Ps = 0 is less than W.
Warning: Pd = 0 is less than W.
Warning: Ps = 0 is less than W.
Warning: Pd = 0 is less than W.
Warning: Ps = 0 is less than W.
Warning: Pd = 0 is less than W.
Warning: Ps = 0 is less than W.
Warning: Pd = 0 is less than W.
Warning: Ps = 0 is less than W.
Warning: Pd = 0 is less than W.
Warning: Ps = 0 is less than W.
Direct Newton iteration for .op point succeeded.

Date: Sat Feb 17 13:50:36 2018
Total elapsed time: 0.504 seconds.

tnom = 27
temp = 27
method = modified trap
totiter = 21083
traniter = 21051
tranpoints = 8972
accept = 7234
rejected = 1738
matrix size = 22
fillins = 12
solver = Normal
Thread vector: 16.7/10.9[2] 3.6/2.5[2] 0.7/1.0[1] 0.1/0.7[1]  2592/500
Matrix Compiler1: 2.22 KB object code size  0.5/0.3/[0.1]
Matrix Compiler2: off  [0.2]/0.3/0.3

