Circuit: * Z:\home\luke\Backup\info\projects\transistorComputer\CMOS\Test_OR.asc

WARNING: Less than two connections to node C.  This node is used by VC.
WARNING: Less than two connections to node D.  This node is used by VD.
Warning: Pd = 0 is less than W.
Warning: Ps = 0 is less than W.
Warning: Pd = 0 is less than W.
Warning: Ps = 0 is less than W.
Warning: Pd = 0 is less than W.
Warning: Ps = 0 is less than W.
Warning: Pd = 0 is less than W.
Warning: Ps = 0 is less than W.
Warning: Pd = 0 is less than W.
Warning: Ps = 0 is less than W.
Warning: Pd = 0 is less than W.
Warning: Ps = 0 is less than W.
Direct Newton iteration for .op point succeeded.

Date: Sat Jan 27 11:15:01 2018
Total elapsed time: 0.192 seconds.

tnom = 27
temp = 27
method = modified trap
totiter = 8199
traniter = 8185
tranpoints = 3538
accept = 2995
rejected = 543
matrix size = 14
fillins = 0
solver = Normal
Matrix Compiler1: 598 bytes object code size  0.7/0.6/[0.6]
Matrix Compiler2: 1016 bytes object code size  0.6/0.7/[0.6]


