Circuit: * D:\transistorComputer\CMOS\Test_Starved_Inverter.asc

WARNING: Less than two connections to node B.  This node is used by VB.
WARNING: Less than two connections to node C.  This node is used by VC.
WARNING: Less than two connections to node D.  This node is used by VD.
Warning: Pd = 0 is less than W.
Warning: Ps = 0 is less than W.
Warning: Pd = 0 is less than W.
Warning: Ps = 0 is less than W.
Direct Newton iteration for .op point succeeded.

Date: Sat Feb 10 18:51:58 2018
Total elapsed time: 0.113 seconds.

tnom = 27
temp = 27
method = modified trap
totiter = 3335
traniter = 3317
tranpoints = 1525
accept = 1426
rejected = 99
matrix size = 14
fillins = 0
solver = Normal
Matrix Compiler1: 366 bytes object code size  0.1/0.1/[0.0]
Matrix Compiler2: 796 bytes object code size  0.1/0.1/[0.0]

