Circuit: * Z:\home\luke\Backup\info\projects\transistorComputer\CMOS\Test_NAND.asc

WARNING: Less than two connections to node B.  This node is used by VB.
WARNING: Less than two connections to node C.  This node is used by VC.
WARNING: Less than two connections to node D.  This node is used by VD.
Warning: Pd = 0 is less than W.
Warning: Ps = 0 is less than W.
Warning: Pd = 0 is less than W.
Warning: Ps = 0 is less than W.
Direct Newton iteration for .op point succeeded.

Date: Thu Mar 01 15:51:39 2018
Total elapsed time: 0.147 seconds.

tnom = 27
temp = 27
method = modified trap
totiter = 7538
traniter = 7524
tranpoints = 3283
accept = 2873
rejected = 410
matrix size = 12
fillins = 0
solver = Normal
Matrix Compiler1: 284 bytes object code size  0.6/0.5/[0.5]
Matrix Compiler2: off  [0.5]/0.6/0.6


