Circuit: * D:\transistorComputer\CMOS\Test_DFF.asc

Warning: Multiple definitions of model "x1:x2:mypmos" Type: BSIM3
Warning: Multiple definitions of model "x1:x2:mynmos" Type: BSIM3
WARNING: Less than two connections to node A.  This node is used by VA.
Warning: Pd = 0 is less than W.
Warning: Ps = 0 is less than W.
Warning: Pd = 0 is less than W.
Warning: Ps = 0 is less than W.
Warning: Pd = 0 is less than W.
Warning: Ps = 0 is less than W.
Warning: Pd = 0 is less than W.
Warning: Ps = 0 is less than W.
Warning: Pd = 0 is less than W.
Warning: Ps = 0 is less than W.
Warning: Pd = 0 is less than W.
Warning: Ps = 0 is less than W.
Warning: Pd = 0 is less than W.
Warning: Ps = 0 is less than W.
Warning: Pd = 0 is less than W.
Warning: Ps = 0 is less than W.
Warning: Pd = 0 is less than W.
Warning: Ps = 0 is less than W.
Warning: Pd = 0 is less than W.
Warning: Ps = 0 is less than W.
Warning: Pd = 0 is less than W.
Warning: Ps = 0 is less than W.
Warning: Pd = 0 is less than W.
Warning: Ps = 0 is less than W.
Direct Newton iteration for .op point succeeded.
Heightened Def Con from 0.001 ++++to 0.001

Date: Sat Feb 17 11:11:05 2018
Total elapsed time: 0.356 seconds.

tnom = 27
temp = 27
method = modified trap
totiter = 16584
traniter = 16546
tranpoints = 6889
accept = 5512
rejected = 1382
matrix size = 20
fillins = 14
solver = Normal
Thread vector: 15.4/11.9[2] 2.3/1.9[2] 1.3/0.9[2] 0.1/0.7[1]  2592/500
Matrix Compiler1: 2.31 KB object code size  0.4/0.2/[0.2]
Matrix Compiler2: 2.30 KB object code size  0.2/0.3/[0.1]

