Circuit: * C:\Users\john\Downloads\Bill(Gates)\CMOS\Test_OR.asc

WARNING: Less than two connections to node C.  This node is used by VC.
WARNING: Less than two connections to node D.  This node is used by VD.
Warning: Pd = 0 is less than W.
Warning: Ps = 0 is less than W.
Warning: Pd = 0 is less than W.
Warning: Ps = 0 is less than W.
Warning: Pd = 0 is less than W.
Warning: Ps = 0 is less than W.
Warning: Pd = 0 is less than W.
Warning: Ps = 0 is less than W.
Warning: Pd = 0 is less than W.
Warning: Ps = 0 is less than W.
Warning: Pd = 0 is less than W.
Warning: Ps = 0 is less than W.
Direct Newton iteration for .op point succeeded.

Date: Wed Jan 24 14:46:20 2018
Total elapsed time: 0.165 seconds.

tnom = 27
temp = 27
method = modified trap
totiter = 8209
traniter = 8195
tranpoints = 3546
accept = 2998
rejected = 548
matrix size = 14
fillins = 0
solver = Normal
Matrix Compiler1: 598 bytes object code size  0.1/0.1/[0.0]
Matrix Compiler2: off  [0.1]/0.2/0.1

