Circuit: * D:\transistorComputer\CMOS\Test_Decoder.asc

WARNING: Less than two connections to node A[2].  This node is used by VA2.
WARNING: Less than two connections to node A[3].  This node is used by VA3.
WARNING: Less than two connections to node B[0].  This node is used by VB0.
WARNING: Less than two connections to node B[1].  This node is used by VB1.
WARNING: Less than two connections to node B[2].  This node is used by VB2.
WARNING: Less than two connections to node B[3].  This node is used by VB3.
Warning: Pd = 0 is less than W.
Warning: Ps = 0 is less than W.
Warning: Pd = 0 is less than W.
Warning: Ps = 0 is less than W.
Warning: Pd = 0 is less than W.
Warning: Ps = 0 is less than W.
Warning: Pd = 0 is less than W.
Warning: Ps = 0 is less than W.
Warning: Pd = 0 is less than W.
Warning: Ps = 0 is less than W.
Warning: Pd = 0 is less than W.
Warning: Ps = 0 is less than W.
Warning: Pd = 0 is less than W.
Warning: Ps = 0 is less than W.
Warning: Pd = 0 is less than W.
Warning: Ps = 0 is less than W.
Warning: Pd = 0 is less than W.
Warning: Ps = 0 is less than W.
Warning: Pd = 0 is less than W.
Warning: Ps = 0 is less than W.
Warning: Pd = 0 is less than W.
Warning: Ps = 0 is less than W.
Warning: Pd = 0 is less than W.
Warning: Ps = 0 is less than W.
Warning: Pd = 0 is less than W.
Warning: Ps = 0 is less than W.
Warning: Pd = 0 is less than W.
Warning: Ps = 0 is less than W.
Warning: Pd = 0 is less than W.
Warning: Ps = 0 is less than W.
Warning: Pd = 0 is less than W.
Warning: Ps = 0 is less than W.
Warning: Pd = 0 is less than W.
Warning: Ps = 0 is less than W.
Warning: Pd = 0 is less than W.
Warning: Ps = 0 is less than W.
Warning: Pd = 0 is less than W.
Warning: Ps = 0 is less than W.
Warning: Pd = 0 is less than W.
Warning: Ps = 0 is less than W.
Warning: Pd = 0 is less than W.
Warning: Ps = 0 is less than W.
Warning: Pd = 0 is less than W.
Warning: Ps = 0 is less than W.
Warning: Pd = 0 is less than W.
Warning: Ps = 0 is less than W.
Warning: Pd = 0 is less than W.
Warning: Ps = 0 is less than W.
Warning: Pd = 0 is less than W.
Warning: Ps = 0 is less than W.
Warning: Pd = 0 is less than W.
Warning: Ps = 0 is less than W.
Warning: Pd = 0 is less than W.
Warning: Ps = 0 is less than W.
Warning: Pd = 0 is less than W.
Warning: Ps = 0 is less than W.
Warning: Pd = 0 is less than W.
Warning: Ps = 0 is less than W.
Warning: Pd = 0 is less than W.
Warning: Ps = 0 is less than W.
Direct Newton iteration for .op point succeeded.
Ignoring empty pin current: Ix(x1:out[4])
Ignoring empty pin current: Ix(x1:out[4])

Date: Tue Mar 13 19:27:17 2018
Total elapsed time: 0.567 seconds.

tnom = 27
temp = 27
method = modified trap
totiter = 18037
traniter = 17991
tranpoints = 7168
accept = 5838
rejected = 1330
matrix size = 43
fillins = 0
solver = Normal
Thread vector: 29.9/18.1[4] 4.7/3.6[4] 1.6/1.4[3] 0.1/0.7[1]  2592/500
Matrix Compiler1: 2.49 KB object code size  0.5/0.3/[0.2]
Matrix Compiler2: off  [0.3]/0.5/0.3

